1

   Abaqus 6.13-1                                  Date 09-7ÔÂ-2019   Time 21:30:03
   For use by  under license from Dassault Systemes or its subsidiary.



                         The Abaqus Software is a product of:

                           Dassault Systemes Simulia Corp.
                                 Rising Sun Mills
                                 166 Valley Street
                           Providence, RI 02909-2499, USA
 


                   The Abaqus Software is available only under license
                   from Dassault Systemes or its subsidiary and may be
                   used or reproduced only in accordance with the terms
                   of such license.
 
                          On machine tbszjwa 
                          you are authorized to run
                          Abaqus/Standard until 31-Dec-2055

                          Your site id is:  


 
                    For assistance or any other information you may
                    obtain contact information for your local office
                    from the world wide web at:

                      http://www.3ds.com/products/simulia/locations/

 
                * * * * * * * * * * * * * * * * * * * * * * * * * * * * * * 
                *                                                         * 
                *                   *****************                     * 
                *                   *  N O T I C E  *                     * 
                *                   *****************                     * 
                *                                                         * 
                *                                                         * 
                *                    Abaqus 6.13-1                        * 
                *                                                         * 
                *          BUILD ID: 2013_05_16-10.28.56 126354           * 
                *                                                         * 
                *                                                         * 
                *  Please make sure you are using release 6.13 manuals    * 
                *  plus the notes accompanying this release.              * 
                *                                                         * 
                *                                                         * 
                *                                                         * 
                *                                                         * 
                * * * * * * * * * * * * * * * * * * * * * * * * * * * * * * 


 



     PROCESSING PART, INSTANCE, AND ASSEMBLY INFORMATION
   *******************************************************


     END PROCESSING PART, INSTANCE, AND ASSEMBLY INFORMATION
   ***********************************************************




     OPTIONS BEING PROCESSED
   ***************************


  *Heading
  *Node
  *Element, type=CPS3
  *Nset, nset=ASSEMBLY_MAINPART_SET-1
  *Elset, elset=ASSEMBLY_MAINPART_SET-1
  *Node
  *Element, type=CPS3
  *Nset, nset=ASSEMBLY_PART-0_SET-1
  *Elset, elset=ASSEMBLY_PART-0_SET-1
  *Node
  *Element, type=CPS3
  *Nset, nset=ASSEMBLY_PART-1_SET-1
  *Elset, elset=ASSEMBLY_PART-1_SET-1
  *Node
  *Element, type=CPS3
  *Nset, nset=ASSEMBLY_PART-2_SET-1
  *Elset, elset=ASSEMBLY_PART-2_SET-1
  *Node
  *Element, type=CPS3
  *Nset, nset=ASSEMBLY_PART-3_SET-1
  *Elset, elset=ASSEMBLY_PART-3_SET-1
  *Node
  *Element, type=CPS3
  *Nset, nset=ASSEMBLY_PART-4_SET-1
  *Elset, elset=ASSEMBLY_PART-4_SET-1
  *Node
  *Element, type=CPS3
  *Nset, nset=ASSEMBLY_PART-5_SET-1
  *Elset, elset=ASSEMBLY_PART-5_SET-1
  *Node
  *Element, type=CPS3
  *Nset, nset=ASSEMBLY_PART-6_SET-1
  *Elset, elset=ASSEMBLY_PART-6_SET-1
  *Node
  *Element, type=CPS3
  *Nset, nset=ASSEMBLY_PART-7_SET-1
  *Elset, elset=ASSEMBLY_PART-7_SET-1
  *Node
  *Element, type=CPS3
  *Nset, nset=ASSEMBLY_PART-8_SET-1
  *Elset, elset=ASSEMBLY_PART-8_SET-1
  *Node
  *Element, type=CPS3
  *Nset, nset=ASSEMBLY_PART-9_SET-1
  *Elset, elset=ASSEMBLY_PART-9_SET-1
  *Node
  *Element, type=CPS3
  *Nset, nset=ASSEMBLY_PART-10_SET-1
  *Elset, elset=ASSEMBLY_PART-10_SET-1
  *Node
  *Element, type=CPS3
  *Nset, nset=ASSEMBLY_PART-11_SET-1
  *Elset, elset=ASSEMBLY_PART-11_SET-1
  *Node
  *Element, type=CPS3
  *Nset, nset=ASSEMBLY_PART-12_SET-1
  *Elset, elset=ASSEMBLY_PART-12_SET-1
  *Node
  *Element, type=CPS3
  *Nset, nset=ASSEMBLY_PART-13_SET-1
  *Elset, elset=ASSEMBLY_PART-13_SET-1
  *Node
  *Element, type=CPS3
  *Nset, nset=ASSEMBLY_PART-14_SET-1
  *Elset, elset=ASSEMBLY_PART-14_SET-1
  *Node
  *Element, type=CPS3
  *Nset, nset=ASSEMBLY_PART-15_SET-1
  *Elset, elset=ASSEMBLY_PART-15_SET-1
  *Node
  *Element, type=CPS3
  *Nset, nset=ASSEMBLY_PART-16_SET-1
  *Elset, elset=ASSEMBLY_PART-16_SET-1
  *Node
  *Element, type=CPS3
  *Nset, nset=ASSEMBLY_PART-17_SET-1
  *Elset, elset=ASSEMBLY_PART-17_SET-1
  *Node
  *Element, type=CPS3
  *Nset, nset=ASSEMBLY_PART-18_SET-1
  *Elset, elset=ASSEMBLY_PART-18_SET-1
  *Node
  *Element, type=CPS3
  *Nset, nset=ASSEMBLY_PART-19_SET-1
  *Elset, elset=ASSEMBLY_PART-19_SET-1
  *Node
  *Element, type=CPS3
  *Nset, nset=ASSEMBLY_PART-20_SET-1
  *Elset, elset=ASSEMBLY_PART-20_SET-1
  *Node
  *Element, type=CPS3
  *Nset, nset=ASSEMBLY_PART-21_SET-1
  *Elset, elset=ASSEMBLY_PART-21_SET-1
  *Node
  *Element, type=CPS3
  *Nset, nset=ASSEMBLY_PART-22_SET-1
  *Elset, elset=ASSEMBLY_PART-22_SET-1
  *Node
  *Element, type=CPS3
  *Nset, nset=ASSEMBLY_PART-23_SET-1
  *Elset, elset=ASSEMBLY_PART-23_SET-1
  *Node
  *Element, type=CPS3
  *Nset, nset=ASSEMBLY_PART-24_SET-1
  *Elset, elset=ASSEMBLY_PART-24_SET-1
  *Node
  *Element, type=CPS3
  *Nset, nset=ASSEMBLY_PART-25_SET-1
  *Elset, elset=ASSEMBLY_PART-25_SET-1
  *Node
  *Element, type=CPS3
  *Nset, nset=ASSEMBLY_PART-26_SET-1
  *Elset, elset=ASSEMBLY_PART-26_SET-1
  *Node
  *Element, type=CPS3
  *Nset, nset=ASSEMBLY_PART-27_SET-1
  *Elset, elset=ASSEMBLY_PART-27_SET-1
  *Node
  *Element, type=CPS3
  *Nset, nset=ASSEMBLY_PART-28_SET-1
  *Elset, elset=ASSEMBLY_PART-28_SET-1
  *Node
  *Element, type=CPS3
  *Nset, nset=ASSEMBLY_PART-29_SET-1
  *Elset, elset=ASSEMBLY_PART-29_SET-1
  *Node
  *Element, type=CPS3
  *Nset, nset=ASSEMBLY_PART-30_SET-1
  *Elset, elset=ASSEMBLY_PART-30_SET-1
  *Node
  *Element, type=CPS3
  *Nset, nset=ASSEMBLY_PART-31_SET-1
  *Elset, elset=ASSEMBLY_PART-31_SET-1
  *Node
  *Element, type=CPS3
  *Nset, nset=ASSEMBLY_PART-32_SET-1
  *Elset, elset=ASSEMBLY_PART-32_SET-1
  *Node
  *Element, type=CPS3
  *Nset, nset=ASSEMBLY_PART-33_SET-1
  *Elset, elset=ASSEMBLY_PART-33_SET-1
  *Node
  *Element, type=CPS3
  *Nset, nset=ASSEMBLY_PART-34_SET-1
  *Elset, elset=ASSEMBLY_PART-34_SET-1
  *Node
  *Element, type=CPS3
  *Nset, nset=ASSEMBLY_PART-35_SET-1
  *Elset, elset=ASSEMBLY_PART-35_SET-1
  *Node
  *Element, type=CPS3
  *Nset, nset=ASSEMBLY_PART-36_SET-1
  *Elset, elset=ASSEMBLY_PART-36_SET-1
  *Node
  *Element, type=CPS3
  *Nset, nset=ASSEMBLY_PART-37_SET-1
  *Elset, elset=ASSEMBLY_PART-37_SET-1
  *Node
  *Element, type=CPS3
  *Nset, nset=ASSEMBLY_PART-38_SET-1
  *Elset, elset=ASSEMBLY_PART-38_SET-1
  *Node
  *Element, type=CPS3
  *Nset, nset=ASSEMBLY_PART-39_SET-1
  *Elset, elset=ASSEMBLY_PART-39_SET-1
  *Node
  *Element, type=CPS3
  *Nset, nset=ASSEMBLY_PART-40_SET-1
  *Elset, elset=ASSEMBLY_PART-40_SET-1
  *Node
  *Element, type=CPS3
  *Nset, nset=ASSEMBLY_PART-41_SET-1
  *Elset, elset=ASSEMBLY_PART-41_SET-1
  *Node
  *Element, type=CPS3
  *Nset, nset=ASSEMBLY_PART-42_SET-1
  *Elset, elset=ASSEMBLY_PART-42_SET-1
  *Node
  *Element, type=CPS3
  *Nset, nset=ASSEMBLY_PART-43_SET-1
  *Elset, elset=ASSEMBLY_PART-43_SET-1
  *Node
  *Element, type=CPS3
  *Nset, nset=ASSEMBLY_PART-44_SET-1
  *Elset, elset=ASSEMBLY_PART-44_SET-1
  *Node
  *Element, type=CPS3
  *Nset, nset=ASSEMBLY_PART-45_SET-1
  *Elset, elset=ASSEMBLY_PART-45_SET-1
  *Node
  *Element, type=CPS3
  *Nset, nset=ASSEMBLY_PART-46_SET-1
  *Elset, elset=ASSEMBLY_PART-46_SET-1
  *Node
  *Element, type=CPS3
  *Nset, nset=ASSEMBLY_PART-47_SET-1
  *Elset, elset=ASSEMBLY_PART-47_SET-1
  *Node
  *Element, type=CPS3
  *Nset, nset=ASSEMBLY_PART-48_SET-1
  *Elset, elset=ASSEMBLY_PART-48_SET-1

 ***NOTE: DUE TO EXCESSIVE REPORTING, THE ECHO OF THE *NODE OPTION IS BEING 
          SUPPRESSED.
  *Element, type=CPS3
  *Nset, nset=ASSEMBLY_PART-49_SET-1
  *Elset, elset=ASSEMBLY_PART-49_SET-1
  *Element, type=CPS3
  *Nset, nset=ASSEMBLY_PART-50_SET-1
  *Elset, elset=ASSEMBLY_PART-50_SET-1
  *Element, type=CPS3
  *Nset, nset=ASSEMBLY_PART-51_SET-1
  *Elset, elset=ASSEMBLY_PART-51_SET-1
  *Element, type=CPS3
  *Nset, nset=ASSEMBLY_PART-52_SET-1
  *Elset, elset=ASSEMBLY_PART-52_SET-1
  *Element, type=CPS3
  *Nset, nset=ASSEMBLY_PART-53_SET-1
  *Elset, elset=ASSEMBLY_PART-53_SET-1
  *Element, type=CPS3
  *Nset, nset=ASSEMBLY_PART-54_SET-1
  *Elset, elset=ASSEMBLY_PART-54_SET-1
  *Element, type=CPS3
  *Nset, nset=ASSEMBLY_PART-55_SET-1
  *Elset, elset=ASSEMBLY_PART-55_SET-1
  *Element, type=CPS3
  *Nset, nset=ASSEMBLY_PART-56_SET-1
  *Elset, elset=ASSEMBLY_PART-56_SET-1
  *Element, type=CPS3
  *Nset, nset=ASSEMBLY_PART-57_SET-1
  *Elset, elset=ASSEMBLY_PART-57_SET-1
  *Element, type=CPS3
  *Nset, nset=ASSEMBLY_PART-58_SET-1
  *Elset, elset=ASSEMBLY_PART-58_SET-1
  *Element, type=CPS3
  *Nset, nset=ASSEMBLY_PART-59_SET-1
  *Elset, elset=ASSEMBLY_PART-59_SET-1
  *Element, type=CPS3
  *Nset, nset=ASSEMBLY_PART-60_SET-1
  *Elset, elset=ASSEMBLY_PART-60_SET-1
  *Element, type=CPS3
  *Nset, nset=ASSEMBLY_PART-61_SET-1
  *Elset, elset=ASSEMBLY_PART-61_SET-1
  *Element, type=CPS3
  *Nset, nset=ASSEMBLY_PART-62_SET-1
  *Elset, elset=ASSEMBLY_PART-62_SET-1
  *Element, type=CPS3
  *Nset, nset=ASSEMBLY_PART-63_SET-1
  *Elset, elset=ASSEMBLY_PART-63_SET-1
  *Element, type=CPS3
  *Nset, nset=ASSEMBLY_PART-64_SET-1
  *Elset, elset=ASSEMBLY_PART-64_SET-1
  *Element, type=CPS3
  *Nset, nset=ASSEMBLY_PART-65_SET-1
  *Elset, elset=ASSEMBLY_PART-65_SET-1
  *Element, type=CPS3
  *Nset, nset=ASSEMBLY_PART-66_SET-1
  *Elset, elset=ASSEMBLY_PART-66_SET-1
  *Element, type=CPS3
  *Nset, nset=ASSEMBLY_PART-67_SET-1
  *Elset, elset=ASSEMBLY_PART-67_SET-1
  *Element, type=CPS3
  *Nset, nset=ASSEMBLY_PART-68_SET-1
  *Elset, elset=ASSEMBLY_PART-68_SET-1
  *Element, type=CPS3
  *Nset, nset=ASSEMBLY_PART-69_SET-1
  *Elset, elset=ASSEMBLY_PART-69_SET-1
  *Element, type=CPS3
  *Nset, nset=ASSEMBLY_PART-70_SET-1
  *Elset, elset=ASSEMBLY_PART-70_SET-1
  *Element, type=CPS3
  *Nset, nset=ASSEMBLY_PART-71_SET-1
  *Elset, elset=ASSEMBLY_PART-71_SET-1
  *Element, type=CPS3
  *Nset, nset=ASSEMBLY_PART-72_SET-1
  *Elset, elset=ASSEMBLY_PART-72_SET-1
  *Element, type=CPS3
  *Nset, nset=ASSEMBLY_PART-73_SET-1
  *Elset, elset=ASSEMBLY_PART-73_SET-1
  *Element, type=CPS3
  *Nset, nset=ASSEMBLY_PART-74_SET-1
  *Elset, elset=ASSEMBLY_PART-74_SET-1
  *Element, type=CPS3
  *Nset, nset=ASSEMBLY_PART-75_SET-1
  *Elset, elset=ASSEMBLY_PART-75_SET-1
  *Element, type=CPS3
  *Nset, nset=ASSEMBLY_PART-76_SET-1
  *Elset, elset=ASSEMBLY_PART-76_SET-1
  *Element, type=CPS3
  *Nset, nset=ASSEMBLY_PART-77_SET-1
  *Elset, elset=ASSEMBLY_PART-77_SET-1
  *Element, type=CPS3
  *Nset, nset=ASSEMBLY_PART-78_SET-1
  *Elset, elset=ASSEMBLY_PART-78_SET-1
  *Element, type=CPS3
  *Nset, nset=ASSEMBLY_PART-79_SET-1
  *Elset, elset=ASSEMBLY_PART-79_SET-1
  *Element, type=CPS3
  *Nset, nset=ASSEMBLY_PART-80_SET-1
  *Elset, elset=ASSEMBLY_PART-80_SET-1
  *Element, type=CPS3
  *Nset, nset=ASSEMBLY_PART-81_SET-1
  *Elset, elset=ASSEMBLY_PART-81_SET-1
  *Element, type=CPS3
  *Nset, nset=ASSEMBLY_PART-82_SET-1
  *Elset, elset=ASSEMBLY_PART-82_SET-1
  *Element, type=CPS3
  *Nset, nset=ASSEMBLY_PART-83_SET-1
  *Elset, elset=ASSEMBLY_PART-83_SET-1
  *Element, type=CPS3
  *Nset, nset=ASSEMBLY_PART-84_SET-1
  *Elset, elset=ASSEMBLY_PART-84_SET-1
  *Element, type=CPS3
  *Nset, nset=ASSEMBLY_PART-85_SET-1
  *Elset, elset=ASSEMBLY_PART-85_SET-1
  *Element, type=CPS3
  *Nset, nset=ASSEMBLY_PART-86_SET-1
  *Elset, elset=ASSEMBLY_PART-86_SET-1
  *Element, type=CPS3
  *Nset, nset=ASSEMBLY_PART-87_SET-1
  *Elset, elset=ASSEMBLY_PART-87_SET-1
  *Element, type=CPS3
  *Nset, nset=ASSEMBLY_PART-88_SET-1
  *Elset, elset=ASSEMBLY_PART-88_SET-1
  *Element, type=CPS3
  *Nset, nset=ASSEMBLY_PART-89_SET-1
  *Elset, elset=ASSEMBLY_PART-89_SET-1
  *Element, type=CPS3
  *Nset, nset=ASSEMBLY_PART-90_SET-1
  *Elset, elset=ASSEMBLY_PART-90_SET-1
  *Element, type=CPS3
  *Nset, nset=ASSEMBLY_PART-91_SET-1
  *Elset, elset=ASSEMBLY_PART-91_SET-1
  *Element, type=CPS3
  *Nset, nset=ASSEMBLY_PART-92_SET-1
  *Elset, elset=ASSEMBLY_PART-92_SET-1
  *Element, type=CPS3
  *Nset, nset=ASSEMBLY_PART-93_SET-1
  *Elset, elset=ASSEMBLY_PART-93_SET-1
  *Element, type=CPS3
  *Nset, nset=ASSEMBLY_PART-94_SET-1
  *Elset, elset=ASSEMBLY_PART-94_SET-1
  *Element, type=CPS3
  *Nset, nset=ASSEMBLY_PART-95_SET-1
  *Elset, elset=ASSEMBLY_PART-95_SET-1
  *Element, type=CPS3
  *Nset, nset=ASSEMBLY_PART-96_SET-1
  *Elset, elset=ASSEMBLY_PART-96_SET-1
  *Element, type=CPS3
  *Nset, nset=ASSEMBLY_PART-97_SET-1
  *Elset, elset=ASSEMBLY_PART-97_SET-1
  *Element, type=CPS3
  *Nset, nset=ASSEMBLY_PART-98_SET-1
  *Elset, elset=ASSEMBLY_PART-98_SET-1
  *Element, type=CPS3
  *Nset, nset=ASSEMBLY_PART-99_SET-1
  *Elset, elset=ASSEMBLY_PART-99_SET-1
  *Element, type=CPS3
  *Nset, nset=ASSEMBLY_PART-100_SET-1
  *Elset, elset=ASSEMBLY_PART-100_SET-1
  *Element, type=CPS3
  *Nset, nset=ASSEMBLY_PART-101_SET-1
  *Elset, elset=ASSEMBLY_PART-101_SET-1
  *Element, type=CPS3
  *Nset, nset=ASSEMBLY_PART-102_SET-1
  *Elset, elset=ASSEMBLY_PART-102_SET-1
  *Element, type=CPS3
  *Nset, nset=ASSEMBLY_PART-103_SET-1
  *Elset, elset=ASSEMBLY_PART-103_SET-1
  *Element, type=CPS3
  *Nset, nset=ASSEMBLY_PART-104_SET-1
  *Elset, elset=ASSEMBLY_PART-104_SET-1
  *Element, type=CPS3
  *Nset, nset=ASSEMBLY_PART-105_SET-1
  *Elset, elset=ASSEMBLY_PART-105_SET-1
  *Element, type=CPS3
  *Nset, nset=ASSEMBLY_PART-106_SET-1
  *Elset, elset=ASSEMBLY_PART-106_SET-1
  *Element, type=CPS3
  *Nset, nset=ASSEMBLY_PART-107_SET-1
  *Elset, elset=ASSEMBLY_PART-107_SET-1
  *Element, type=CPS3
  *Nset, nset=ASSEMBLY_PART-108_SET-1
  *Elset, elset=ASSEMBLY_PART-108_SET-1
  *Element, type=CPS3
  *Nset, nset=ASSEMBLY_PART-109_SET-1
  *Elset, elset=ASSEMBLY_PART-109_SET-1
  *Element, type=CPS3
  *Nset, nset=ASSEMBLY_PART-110_SET-1
  *Elset, elset=ASSEMBLY_PART-110_SET-1
  *Element, type=CPS3
  *Nset, nset=ASSEMBLY_PART-111_SET-1
  *Elset, elset=ASSEMBLY_PART-111_SET-1
  *Element, type=CPS3
  *Nset, nset=ASSEMBLY_PART-112_SET-1
  *Elset, elset=ASSEMBLY_PART-112_SET-1
  *Element, type=CPS3
  *Nset, nset=ASSEMBLY_PART-113_SET-1
  *Elset, elset=ASSEMBLY_PART-113_SET-1
  *Element, type=CPS3
  *Nset, nset=ASSEMBLY_PART-114_SET-1
  *Elset, elset=ASSEMBLY_PART-114_SET-1
  *Element, type=CPS3
  *Nset, nset=ASSEMBLY_PART-115_SET-1
  *Elset, elset=ASSEMBLY_PART-115_SET-1
  *Element, type=CPS3
  *Nset, nset=ASSEMBLY_PART-116_SET-1
  *Elset, elset=ASSEMBLY_PART-116_SET-1
  *Element, type=CPS3
  *Nset, nset=ASSEMBLY_PART-117_SET-1
  *Elset, elset=ASSEMBLY_PART-117_SET-1
  *Element, type=CPS3
  *Nset, nset=ASSEMBLY_PART-118_SET-1
  *Elset, elset=ASSEMBLY_PART-118_SET-1
  *Element, type=CPS3
  *Nset, nset=ASSEMBLY_PART-119_SET-1
  *Elset, elset=ASSEMBLY_PART-119_SET-1
  *Element, type=CPS3
  *Nset, nset=ASSEMBLY_PART-120_SET-1
  *Elset, elset=ASSEMBLY_PART-120_SET-1
  *Element, type=CPS3
  *Nset, nset=ASSEMBLY_PART-121_SET-1
  *Elset, elset=ASSEMBLY_PART-121_SET-1
  *Element, type=CPS3
  *Nset, nset=ASSEMBLY_PART-122_SET-1
  *Elset, elset=ASSEMBLY_PART-122_SET-1
  *Element, type=CPS3
  *Nset, nset=ASSEMBLY_PART-123_SET-1
  *Elset, elset=ASSEMBLY_PART-123_SET-1
  *Element, type=CPS3
  *Nset, nset=ASSEMBLY_PART-124_SET-1
  *Elset, elset=ASSEMBLY_PART-124_SET-1
  *Element, type=CPS3
  *Nset, nset=ASSEMBLY_PART-125_SET-1
  *Elset, elset=ASSEMBLY_PART-125_SET-1
  *Nset, nset=ASSEMBLY_SET-1
  *Elset, elset=ASSEMBLY_SET-1
  *Elset, elset=ASSEMBLY__M_SURF-MAINPART0_S1
  *Elset, elset=ASSEMBLY__M_SURF-MAINPART0_S2
  *Elset, elset=ASSEMBLY__M_SURF-MAINPART0_S3
  *Elset, elset=ASSEMBLY__M_SURF-MAINPART100_S1
  *Elset, elset=ASSEMBLY__M_SURF-MAINPART100_S2
  *Elset, elset=ASSEMBLY__M_SURF-MAINPART100_S3
  *Elset, elset=ASSEMBLY__M_SURF-MAINPART101_S2
  *Elset, elset=ASSEMBLY__M_SURF-MAINPART101_S3
  *Elset, elset=ASSEMBLY__M_SURF-MAINPART102_S1
  *Elset, elset=ASSEMBLY__M_SURF-MAINPART102_S2
  *Elset, elset=ASSEMBLY__M_SURF-MAINPART102_S3
  *Elset, elset=ASSEMBLY__M_SURF-MAINPART103_S2
  *Elset, elset=ASSEMBLY__M_SURF-MAINPART103_S3
  *Elset, elset=ASSEMBLY__M_SURF-MAINPART104_S1
  *Elset, elset=ASSEMBLY__M_SURF-MAINPART104_S2
  *Elset, elset=ASSEMBLY__M_SURF-MAINPART104_S3
  *Elset, elset=ASSEMBLY__M_SURF-MAINPART105_S1
  *Elset, elset=ASSEMBLY__M_SURF-MAINPART105_S2
  *Elset, elset=ASSEMBLY__M_SURF-MAINPART105_S3
  *Elset, elset=ASSEMBLY__M_SURF-MAINPART106_S1
  *Elset, elset=ASSEMBLY__M_SURF-MAINPART106_S2
  *Elset, elset=ASSEMBLY__M_SURF-MAINPART106_S3
  *Elset, elset=ASSEMBLY__M_SURF-MAINPART107_S1
  *Elset, elset=ASSEMBLY__M_SURF-MAINPART107_S2
  *Elset, elset=ASSEMBLY__M_SURF-MAINPART107_S3
  *Elset, elset=ASSEMBLY__M_SURF-MAINPART108_S1
  *Elset, elset=ASSEMBLY__M_SURF-MAINPART108_S2
  *Elset, elset=ASSEMBLY__M_SURF-MAINPART109_S1
  *Elset, elset=ASSEMBLY__M_SURF-MAINPART109_S2
  *Elset, elset=ASSEMBLY__M_SURF-MAINPART109_S3
  *Elset, elset=ASSEMBLY__M_SURF-MAINPART10_S1
  *Elset, elset=ASSEMBLY__M_SURF-MAINPART10_S2
  *Elset, elset=ASSEMBLY__M_SURF-MAINPART10_S3
  *Elset, elset=ASSEMBLY__M_SURF-MAINPART110_S1
  *Elset, elset=ASSEMBLY__M_SURF-MAINPART110_S2
  *Elset, elset=ASSEMBLY__M_SURF-MAINPART110_S3
  *Elset, elset=ASSEMBLY__M_SURF-MAINPART111_S1
  *Elset, elset=ASSEMBLY__M_SURF-MAINPART111_S2
  *Elset, elset=ASSEMBLY__M_SURF-MAINPART111_S3
  *Elset, elset=ASSEMBLY__M_SURF-MAINPART112_S1
  *Elset, elset=ASSEMBLY__M_SURF-MAINPART112_S2
  *Elset, elset=ASSEMBLY__M_SURF-MAINPART112_S3
  *Elset, elset=ASSEMBLY__M_SURF-MAINPART113_S1
  *Elset, elset=ASSEMBLY__M_SURF-MAINPART113_S2
  *Elset, elset=ASSEMBLY__M_SURF-MAINPART114_S1
  *Elset, elset=ASSEMBLY__M_SURF-MAINPART114_S2
  *Elset, elset=ASSEMBLY__M_SURF-MAINPART114_S3
  *Elset, elset=ASSEMBLY__M_SURF-MAINPART115_S1
  *Elset, elset=ASSEMBLY__M_SURF-MAINPART115_S2
  *Elset, elset=ASSEMBLY__M_SURF-MAINPART115_S3
  *Elset, elset=ASSEMBLY__M_SURF-MAINPART116_S1
  *Elset, elset=ASSEMBLY__M_SURF-MAINPART116_S2
  *Elset, elset=ASSEMBLY__M_SURF-MAINPART116_S3
  *Elset, elset=ASSEMBLY__M_SURF-MAINPART117_S1
  *Elset, elset=ASSEMBLY__M_SURF-MAINPART117_S2
  *Elset, elset=ASSEMBLY__M_SURF-MAINPART117_S3
  *Elset, elset=ASSEMBLY__M_SURF-MAINPART118_S1
  *Elset, elset=ASSEMBLY__M_SURF-MAINPART118_S2
  *Elset, elset=ASSEMBLY__M_SURF-MAINPART118_S3
  *Elset, elset=ASSEMBLY__M_SURF-MAINPART119_S1
  *Elset, elset=ASSEMBLY__M_SURF-MAINPART119_S2
  *Elset, elset=ASSEMBLY__M_SURF-MAINPART11_S1
  *Elset, elset=ASSEMBLY__M_SURF-MAINPART11_S2
  *Elset, elset=ASSEMBLY__M_SURF-MAINPART11_S3
  *Elset, elset=ASSEMBLY__M_SURF-MAINPART120_S1
  *Elset, elset=ASSEMBLY__M_SURF-MAINPART120_S2
  *Elset, elset=ASSEMBLY__M_SURF-MAINPART121_S1
  *Elset, elset=ASSEMBLY__M_SURF-MAINPART121_S2
  *Elset, elset=ASSEMBLY__M_SURF-MAINPART121_S3
  *Elset, elset=ASSEMBLY__M_SURF-MAINPART122_S1
  *Elset, elset=ASSEMBLY__M_SURF-MAINPART122_S2
  *Elset, elset=ASSEMBLY__M_SURF-MAINPART123_S1
  *Elset, elset=ASSEMBLY__M_SURF-MAINPART123_S2
  *Elset, elset=ASSEMBLY__M_SURF-MAINPART124_S2
  *Elset, elset=ASSEMBLY__M_SURF-MAINPART124_S3
  *Elset, elset=ASSEMBLY__M_SURF-MAINPART125_S1
  *Elset, elset=ASSEMBLY__M_SURF-MAINPART125_S2
  *Elset, elset=ASSEMBLY__M_SURF-MAINPART125_S3
  *Elset, elset=ASSEMBLY__M_SURF-MAINPART12_S1
  *Elset, elset=ASSEMBLY__M_SURF-MAINPART12_S2
  *Elset, elset=ASSEMBLY__M_SURF-MAINPART12_S3
  *Elset, elset=ASSEMBLY__M_SURF-MAINPART13_S1
  *Elset, elset=ASSEMBLY__M_SURF-MAINPART13_S2
  *Elset, elset=ASSEMBLY__M_SURF-MAINPART13_S3
  *Elset, elset=ASSEMBLY__M_SURF-MAINPART14_S1
  *Elset, elset=ASSEMBLY__M_SURF-MAINPART14_S2
  *Elset, elset=ASSEMBLY__M_SURF-MAINPART14_S3
  *Elset, elset=ASSEMBLY__M_SURF-MAINPART15_S1
  *Elset, elset=ASSEMBLY__M_SURF-MAINPART15_S2
  *Elset, elset=ASSEMBLY__M_SURF-MAINPART15_S3
  *Elset, elset=ASSEMBLY__M_SURF-MAINPART16_S1
  *Elset, elset=ASSEMBLY__M_SURF-MAINPART16_S2
  *Elset, elset=ASSEMBLY__M_SURF-MAINPART16_S3
  *Elset, elset=ASSEMBLY__M_SURF-MAINPART17_S1
  *Elset, elset=ASSEMBLY__M_SURF-MAINPART17_S2
  *Elset, elset=ASSEMBLY__M_SURF-MAINPART17_S3
  *Elset, elset=ASSEMBLY__M_SURF-MAINPART18_S1
  *Elset, elset=ASSEMBLY__M_SURF-MAINPART18_S2
  *Elset, elset=ASSEMBLY__M_SURF-MAINPART18_S3
  *Elset, elset=ASSEMBLY__M_SURF-MAINPART19_S2
  *Elset, elset=ASSEMBLY__M_SURF-MAINPART19_S3
  *Elset, elset=ASSEMBLY__M_SURF-MAINPART1_S1
  *Elset, elset=ASSEMBLY__M_SURF-MAINPART1_S2
  *Elset, elset=ASSEMBLY__M_SURF-MAINPART1_S3
  *Elset, elset=ASSEMBLY__M_SURF-MAINPART20_S1
  *Elset, elset=ASSEMBLY__M_SURF-MAINPART20_S2
  *Elset, elset=ASSEMBLY__M_SURF-MAINPART20_S3
  *Elset, elset=ASSEMBLY__M_SURF-MAINPART21_S1
  *Elset, elset=ASSEMBLY__M_SURF-MAINPART21_S2
  *Elset, elset=ASSEMBLY__M_SURF-MAINPART21_S3
  *Elset, elset=ASSEMBLY__M_SURF-MAINPART22_S1
  *Elset, elset=ASSEMBLY__M_SURF-MAINPART22_S2
  *Elset, elset=ASSEMBLY__M_SURF-MAINPART22_S3
  *Elset, elset=ASSEMBLY__M_SURF-MAINPART23_S1
  *Elset, elset=ASSEMBLY__M_SURF-MAINPART23_S2
  *Elset, elset=ASSEMBLY__M_SURF-MAINPART24_S1
  *Elset, elset=ASSEMBLY__M_SURF-MAINPART24_S2
  *Elset, elset=ASSEMBLY__M_SURF-MAINPART24_S3
  *Elset, elset=ASSEMBLY__M_SURF-MAINPART25_S1
  *Elset, elset=ASSEMBLY__M_SURF-MAINPART25_S2
  *Elset, elset=ASSEMBLY__M_SURF-MAINPART25_S3
  *Elset, elset=ASSEMBLY__M_SURF-MAINPART26_S1
  *Elset, elset=ASSEMBLY__M_SURF-MAINPART26_S2
  *Elset, elset=ASSEMBLY__M_SURF-MAINPART26_S3
  *Elset, elset=ASSEMBLY__M_SURF-MAINPART27_S1
  *Elset, elset=ASSEMBLY__M_SURF-MAINPART27_S2
  *Elset, elset=ASSEMBLY__M_SURF-MAINPART27_S3
  *Elset, elset=ASSEMBLY__M_SURF-MAINPART28_S1
  *Elset, elset=ASSEMBLY__M_SURF-MAINPART28_S2
  *Elset, elset=ASSEMBLY__M_SURF-MAINPART29_S2
  *Elset, elset=ASSEMBLY__M_SURF-MAINPART29_S3
  *Elset, elset=ASSEMBLY__M_SURF-MAINPART2_S2
  *Elset, elset=ASSEMBLY__M_SURF-MAINPART2_S3
  *Elset, elset=ASSEMBLY__M_SURF-MAINPART30_S1
  *Elset, elset=ASSEMBLY__M_SURF-MAINPART30_S2
  *Elset, elset=ASSEMBLY__M_SURF-MAINPART30_S3
  *Elset, elset=ASSEMBLY__M_SURF-MAINPART31_S1
  *Elset, elset=ASSEMBLY__M_SURF-MAINPART31_S2
  *Elset, elset=ASSEMBLY__M_SURF-MAINPART32_S1
  *Elset, elset=ASSEMBLY__M_SURF-MAINPART32_S2
  *Elset, elset=ASSEMBLY__M_SURF-MAINPART32_S3
  *Elset, elset=ASSEMBLY__M_SURF-MAINPART33_S1
  *Elset, elset=ASSEMBLY__M_SURF-MAINPART33_S2
  *Elset, elset=ASSEMBLY__M_SURF-MAINPART34_S1
  *Elset, elset=ASSEMBLY__M_SURF-MAINPART34_S2
  *Elset, elset=ASSEMBLY__M_SURF-MAINPART34_S3
  *Elset, elset=ASSEMBLY__M_SURF-MAINPART35_S1
  *Elset, elset=ASSEMBLY__M_SURF-MAINPART35_S2
  *Elset, elset=ASSEMBLY__M_SURF-MAINPART36_S1
  *Elset, elset=ASSEMBLY__M_SURF-MAINPART36_S2
  *Elset, elset=ASSEMBLY__M_SURF-MAINPART36_S3
  *Elset, elset=ASSEMBLY__M_SURF-MAINPART37_S1
  *Elset, elset=ASSEMBLY__M_SURF-MAINPART37_S2
  *Elset, elset=ASSEMBLY__M_SURF-MAINPART38_S1
  *Elset, elset=ASSEMBLY__M_SURF-MAINPART38_S2
  *Elset, elset=ASSEMBLY__M_SURF-MAINPART38_S3
  *Elset, elset=ASSEMBLY__M_SURF-MAINPART39_S1
  *Elset, elset=ASSEMBLY__M_SURF-MAINPART39_S2
  *Elset, elset=ASSEMBLY__M_SURF-MAINPART39_S3
  *Elset, elset=ASSEMBLY__M_SURF-MAINPART3_S2
  *Elset, elset=ASSEMBLY__M_SURF-MAINPART40_S1
  *Elset, elset=ASSEMBLY__M_SURF-MAINPART40_S2
  *Elset, elset=ASSEMBLY__M_SURF-MAINPART40_S3
  *Elset, elset=ASSEMBLY__M_SURF-MAINPART41_S2
  *Elset, elset=ASSEMBLY__M_SURF-MAINPART41_S3
  *Elset, elset=ASSEMBLY__M_SURF-MAINPART42_S2
  *Elset, elset=ASSEMBLY__M_SURF-MAINPART42_S3
  *Elset, elset=ASSEMBLY__M_SURF-MAINPART43_S1
  *Elset, elset=ASSEMBLY__M_SURF-MAINPART43_S2
  *Elset, elset=ASSEMBLY__M_SURF-MAINPART43_S3
  *Elset, elset=ASSEMBLY__M_SURF-MAINPART44_S1
  *Elset, elset=ASSEMBLY__M_SURF-MAINPART44_S2
  *Elset, elset=ASSEMBLY__M_SURF-MAINPART45_S1
  *Elset, elset=ASSEMBLY__M_SURF-MAINPART45_S2
  *Elset, elset=ASSEMBLY__M_SURF-MAINPART45_S3
  *Elset, elset=ASSEMBLY__M_SURF-MAINPART46_S1
  *Elset, elset=ASSEMBLY__M_SURF-MAINPART46_S2
  *Elset, elset=ASSEMBLY__M_SURF-MAINPART46_S3
  *Elset, elset=ASSEMBLY__M_SURF-MAINPART47_S1
  *Elset, elset=ASSEMBLY__M_SURF-MAINPART47_S2
  *Elset, elset=ASSEMBLY__M_SURF-MAINPART47_S3
  *Elset, elset=ASSEMBLY__M_SURF-MAINPART48_S1
  *Elset, elset=ASSEMBLY__M_SURF-MAINPART48_S2
  *Elset, elset=ASSEMBLY__M_SURF-MAINPART48_S3
  *Elset, elset=ASSEMBLY__M_SURF-MAINPART49_S1
  *Elset, elset=ASSEMBLY__M_SURF-MAINPART49_S2
  *Elset, elset=ASSEMBLY__M_SURF-MAINPART49_S3
  *Elset, elset=ASSEMBLY__M_SURF-MAINPART4_S1
  *Elset, elset=ASSEMBLY__M_SURF-MAINPART4_S2
  *Elset, elset=ASSEMBLY__M_SURF-MAINPART4_S3
  *Elset, elset=ASSEMBLY__M_SURF-MAINPART50_S2
  *Elset, elset=ASSEMBLY__M_SURF-MAINPART50_S3
  *Elset, elset=ASSEMBLY__M_SURF-MAINPART51_S1
  *Elset, elset=ASSEMBLY__M_SURF-MAINPART51_S2
  *Elset, elset=ASSEMBLY__M_SURF-MAINPART51_S3
  *Elset, elset=ASSEMBLY__M_SURF-MAINPART52_S1
  *Elset, elset=ASSEMBLY__M_SURF-MAINPART52_S2
  *Elset, elset=ASSEMBLY__M_SURF-MAINPART52_S3
  *Elset, elset=ASSEMBLY__M_SURF-MAINPART53_S1
  *Elset, elset=ASSEMBLY__M_SURF-MAINPART53_S2
  *Elset, elset=ASSEMBLY__M_SURF-MAINPART53_S3
  *Elset, elset=ASSEMBLY__M_SURF-MAINPART54_S1
  *Elset, elset=ASSEMBLY__M_SURF-MAINPART54_S2
  *Elset, elset=ASSEMBLY__M_SURF-MAINPART54_S3
  *Elset, elset=ASSEMBLY__M_SURF-MAINPART55_S1
  *Elset, elset=ASSEMBLY__M_SURF-MAINPART55_S2
  *Elset, elset=ASSEMBLY__M_SURF-MAINPART55_S3
  *Elset, elset=ASSEMBLY__M_SURF-MAINPART56_S1
  *Elset, elset=ASSEMBLY__M_SURF-MAINPART56_S2
  *Elset, elset=ASSEMBLY__M_SURF-MAINPART56_S3
  *Elset, elset=ASSEMBLY__M_SURF-MAINPART57_S1
  *Elset, elset=ASSEMBLY__M_SURF-MAINPART57_S2
  *Elset, elset=ASSEMBLY__M_SURF-MAINPART58_S1
  *Elset, elset=ASSEMBLY__M_SURF-MAINPART58_S2
  *Elset, elset=ASSEMBLY__M_SURF-MAINPART58_S3
  *Elset, elset=ASSEMBLY__M_SURF-MAINPART59_S1
  *Elset, elset=ASSEMBLY__M_SURF-MAINPART59_S2
  *Elset, elset=ASSEMBLY__M_SURF-MAINPART59_S3
  *Elset, elset=ASSEMBLY__M_SURF-MAINPART5_S1
  *Elset, elset=ASSEMBLY__M_SURF-MAINPART5_S2
  *Elset, elset=ASSEMBLY__M_SURF-MAINPART5_S3
  *Elset, elset=ASSEMBLY__M_SURF-MAINPART60_S1
  *Elset, elset=ASSEMBLY__M_SURF-MAINPART60_S2
  *Elset, elset=ASSEMBLY__M_SURF-MAINPART60_S3
  *Elset, elset=ASSEMBLY__M_SURF-MAINPART61_S2
  *Elset, elset=ASSEMBLY__M_SURF-MAINPART61_S3
  *Elset, elset=ASSEMBLY__M_SURF-MAINPART62_S1
  *Elset, elset=ASSEMBLY__M_SURF-MAINPART62_S2
  *Elset, elset=ASSEMBLY__M_SURF-MAINPART62_S3
  *Elset, elset=ASSEMBLY__M_SURF-MAINPART63_S1
  *Elset, elset=ASSEMBLY__M_SURF-MAINPART63_S2
  *Elset, elset=ASSEMBLY__M_SURF-MAINPART64_S1
  *Elset, elset=ASSEMBLY__M_SURF-MAINPART64_S2
  *Elset, elset=ASSEMBLY__M_SURF-MAINPART64_S3
  *Elset, elset=ASSEMBLY__M_SURF-MAINPART65_S1
  *Elset, elset=ASSEMBLY__M_SURF-MAINPART65_S2
  *Elset, elset=ASSEMBLY__M_SURF-MAINPART66_S1
  *Elset, elset=ASSEMBLY__M_SURF-MAINPART66_S2
  *Elset, elset=ASSEMBLY__M_SURF-MAINPART66_S3
  *Elset, elset=ASSEMBLY__M_SURF-MAINPART67_S1
  *Elset, elset=ASSEMBLY__M_SURF-MAINPART67_S2
  *Elset, elset=ASSEMBLY__M_SURF-MAINPART68_S1
  *Elset, elset=ASSEMBLY__M_SURF-MAINPART68_S2
  *Elset, elset=ASSEMBLY__M_SURF-MAINPART68_S3
  *Elset, elset=ASSEMBLY__M_SURF-MAINPART69_S1
  *Elset, elset=ASSEMBLY__M_SURF-MAINPART69_S2
  *Elset, elset=ASSEMBLY__M_SURF-MAINPART69_S3
  *Elset, elset=ASSEMBLY__M_SURF-MAINPART6_S1
  *Elset, elset=ASSEMBLY__M_SURF-MAINPART6_S2
  *Elset, elset=ASSEMBLY__M_SURF-MAINPART6_S3
  *Elset, elset=ASSEMBLY__M_SURF-MAINPART70_S1
  *Elset, elset=ASSEMBLY__M_SURF-MAINPART70_S2
  *Elset, elset=ASSEMBLY__M_SURF-MAINPART70_S3
  *Elset, elset=ASSEMBLY__M_SURF-MAINPART71_S1
  *Elset, elset=ASSEMBLY__M_SURF-MAINPART71_S2
  *Elset, elset=ASSEMBLY__M_SURF-MAINPART71_S3
  *Elset, elset=ASSEMBLY__M_SURF-MAINPART72_S1
  *Elset, elset=ASSEMBLY__M_SURF-MAINPART72_S2
  *Elset, elset=ASSEMBLY__M_SURF-MAINPART72_S3
  *Elset, elset=ASSEMBLY__M_SURF-MAINPART73_S1
  *Elset, elset=ASSEMBLY__M_SURF-MAINPART73_S2
  *Elset, elset=ASSEMBLY__M_SURF-MAINPART73_S3
  *Elset, elset=ASSEMBLY__M_SURF-MAINPART74_S1
  *Elset, elset=ASSEMBLY__M_SURF-MAINPART74_S2
  *Elset, elset=ASSEMBLY__M_SURF-MAINPART74_S3
  *Elset, elset=ASSEMBLY__M_SURF-MAINPART75_S1
  *Elset, elset=ASSEMBLY__M_SURF-MAINPART75_S2
  *Elset, elset=ASSEMBLY__M_SURF-MAINPART75_S3
  *Elset, elset=ASSEMBLY__M_SURF-MAINPART76_S1
  *Elset, elset=ASSEMBLY__M_SURF-MAINPART76_S2
  *Elset, elset=ASSEMBLY__M_SURF-MAINPART76_S3
  *Elset, elset=ASSEMBLY__M_SURF-MAINPART77_S1
  *Elset, elset=ASSEMBLY__M_SURF-MAINPART77_S2
  *Elset, elset=ASSEMBLY__M_SURF-MAINPART77_S3
  *Elset, elset=ASSEMBLY__M_SURF-MAINPART78_S1
  *Elset, elset=ASSEMBLY__M_SURF-MAINPART78_S2
  *Elset, elset=ASSEMBLY__M_SURF-MAINPART79_S1
  *Elset, elset=ASSEMBLY__M_SURF-MAINPART79_S2
  *Elset, elset=ASSEMBLY__M_SURF-MAINPART79_S3
  *Elset, elset=ASSEMBLY__M_SURF-MAINPART7_S1
  *Elset, elset=ASSEMBLY__M_SURF-MAINPART7_S2
  *Elset, elset=ASSEMBLY__M_SURF-MAINPART80_S1
  *Elset, elset=ASSEMBLY__M_SURF-MAINPART80_S2
  *Elset, elset=ASSEMBLY__M_SURF-MAINPART80_S3
  *Elset, elset=ASSEMBLY__M_SURF-MAINPART81_S2
  *Elset, elset=ASSEMBLY__M_SURF-MAINPART81_S3
  *Elset, elset=ASSEMBLY__M_SURF-MAINPART82_S2
  *Elset, elset=ASSEMBLY__M_SURF-MAINPART82_S3
  *Elset, elset=ASSEMBLY__M_SURF-MAINPART83_S2
  *Elset, elset=ASSEMBLY__M_SURF-MAINPART83_S3
  *Elset, elset=ASSEMBLY__M_SURF-MAINPART84_S1
  *Elset, elset=ASSEMBLY__M_SURF-MAINPART84_S2
  *Elset, elset=ASSEMBLY__M_SURF-MAINPART84_S3
  *Elset, elset=ASSEMBLY__M_SURF-MAINPART85_S1
  *Elset, elset=ASSEMBLY__M_SURF-MAINPART85_S2
  *Elset, elset=ASSEMBLY__M_SURF-MAINPART85_S3
  *Elset, elset=ASSEMBLY__M_SURF-MAINPART86_S1
  *Elset, elset=ASSEMBLY__M_SURF-MAINPART86_S2
  *Elset, elset=ASSEMBLY__M_SURF-MAINPART86_S3
  *Elset, elset=ASSEMBLY__M_SURF-MAINPART87_S1
  *Elset, elset=ASSEMBLY__M_SURF-MAINPART87_S2
  *Elset, elset=ASSEMBLY__M_SURF-MAINPART87_S3
  *Elset, elset=ASSEMBLY__M_SURF-MAINPART88_S1
  *Elset, elset=ASSEMBLY__M_SURF-MAINPART88_S2
  *Elset, elset=ASSEMBLY__M_SURF-MAINPART88_S3
  *Elset, elset=ASSEMBLY__M_SURF-MAINPART89_S2
  *Elset, elset=ASSEMBLY__M_SURF-MAINPART89_S3
  *Elset, elset=ASSEMBLY__M_SURF-MAINPART8_S2
  *Elset, elset=ASSEMBLY__M_SURF-MAINPART8_S3
  *Elset, elset=ASSEMBLY__M_SURF-MAINPART90_S1
  *Elset, elset=ASSEMBLY__M_SURF-MAINPART90_S2
  *Elset, elset=ASSEMBLY__M_SURF-MAINPART91_S1
  *Elset, elset=ASSEMBLY__M_SURF-MAINPART91_S2
  *Elset, elset=ASSEMBLY__M_SURF-MAINPART91_S3
  *Elset, elset=ASSEMBLY__M_SURF-MAINPART92_S1
  *Elset, elset=ASSEMBLY__M_SURF-MAINPART92_S2
  *Elset, elset=ASSEMBLY__M_SURF-MAINPART92_S3
  *Elset, elset=ASSEMBLY__M_SURF-MAINPART93_S2
  *Elset, elset=ASSEMBLY__M_SURF-MAINPART93_S3
  *Elset, elset=ASSEMBLY__M_SURF-MAINPART94_S1
  *Elset, elset=ASSEMBLY__M_SURF-MAINPART94_S2
  *Elset, elset=ASSEMBLY__M_SURF-MAINPART94_S3
  *Elset, elset=ASSEMBLY__M_SURF-MAINPART95_S1
  *Elset, elset=ASSEMBLY__M_SURF-MAINPART95_S2
  *Elset, elset=ASSEMBLY__M_SURF-MAINPART95_S3
  *Elset, elset=ASSEMBLY__M_SURF-MAINPART96_S1
  *Elset, elset=ASSEMBLY__M_SURF-MAINPART96_S2
  *Elset, elset=ASSEMBLY__M_SURF-MAINPART96_S3
  *Elset, elset=ASSEMBLY__M_SURF-MAINPART97_S2
  *Elset, elset=ASSEMBLY__M_SURF-MAINPART97_S3
  *Elset, elset=ASSEMBLY__M_SURF-MAINPART98_S2
  *Elset, elset=ASSEMBLY__M_SURF-MAINPART99_S1
  *Elset, elset=ASSEMBLY__M_SURF-MAINPART99_S2
  *Elset, elset=ASSEMBLY__M_SURF-MAINPART99_S3
  *Elset, elset=ASSEMBLY__M_SURF-MAINPART9_S1
  *Elset, elset=ASSEMBLY__M_SURF-MAINPART9_S2
  *Elset, elset=ASSEMBLY__SURF-1_S1
  *Elset, elset=ASSEMBLY__SURF-1_S2
  *Elset, elset=ASSEMBLY__SURF-1_S3
  *Elset, elset=ASSEMBLY__S_SURF-PART-00_S2
  *Elset, elset=ASSEMBLY__S_SURF-PART-100100_S2
  *Elset, elset=ASSEMBLY__S_SURF-PART-1010_S2
  *Elset, elset=ASSEMBLY__S_SURF-PART-101101_S2
  *Elset, elset=ASSEMBLY__S_SURF-PART-102102_S2
  *Elset, elset=ASSEMBLY__S_SURF-PART-103103_S2
  *Elset, elset=ASSEMBLY__S_SURF-PART-104104_S2
  *Elset, elset=ASSEMBLY__S_SURF-PART-105105_S2
  *Elset, elset=ASSEMBLY__S_SURF-PART-106106_S2
  *Elset, elset=ASSEMBLY__S_SURF-PART-107107_S2
  *Elset, elset=ASSEMBLY__S_SURF-PART-108108_S2
  *Elset, elset=ASSEMBLY__S_SURF-PART-109109_S2
  *Elset, elset=ASSEMBLY__S_SURF-PART-110110_S2
  *Elset, elset=ASSEMBLY__S_SURF-PART-111111_S2
  *Elset, elset=ASSEMBLY__S_SURF-PART-1111_S2
  *Elset, elset=ASSEMBLY__S_SURF-PART-112112_S2
  *Elset, elset=ASSEMBLY__S_SURF-PART-113113_S2
  *Elset, elset=ASSEMBLY__S_SURF-PART-114114_S2
  *Elset, elset=ASSEMBLY__S_SURF-PART-115115_S2
  *Elset, elset=ASSEMBLY__S_SURF-PART-116116_S2
  *Elset, elset=ASSEMBLY__S_SURF-PART-117117_S2
  *Elset, elset=ASSEMBLY__S_SURF-PART-118118_S2
  *Elset, elset=ASSEMBLY__S_SURF-PART-119119_S2
  *Elset, elset=ASSEMBLY__S_SURF-PART-11_S2
  *Elset, elset=ASSEMBLY__S_SURF-PART-120120_S2
  *Elset, elset=ASSEMBLY__S_SURF-PART-121121_S2
  *Elset, elset=ASSEMBLY__S_SURF-PART-1212_S2
  *Elset, elset=ASSEMBLY__S_SURF-PART-122122_S2
  *Elset, elset=ASSEMBLY__S_SURF-PART-123123_S2
  *Elset, elset=ASSEMBLY__S_SURF-PART-124124_S2
  *Elset, elset=ASSEMBLY__S_SURF-PART-125125_S2
  *Elset, elset=ASSEMBLY__S_SURF-PART-1313_S2
  *Elset, elset=ASSEMBLY__S_SURF-PART-1414_S2
  *Elset, elset=ASSEMBLY__S_SURF-PART-1515_S2
  *Elset, elset=ASSEMBLY__S_SURF-PART-1616_S2
  *Elset, elset=ASSEMBLY__S_SURF-PART-1717_S2
  *Elset, elset=ASSEMBLY__S_SURF-PART-1818_S2
  *Elset, elset=ASSEMBLY__S_SURF-PART-1919_S2
  *Elset, elset=ASSEMBLY__S_SURF-PART-2020_S2
  *Elset, elset=ASSEMBLY__S_SURF-PART-2121_S2
  *Elset, elset=ASSEMBLY__S_SURF-PART-2222_S2
  *Elset, elset=ASSEMBLY__S_SURF-PART-22_S2
  *Elset, elset=ASSEMBLY__S_SURF-PART-2323_S2
  *Elset, elset=ASSEMBLY__S_SURF-PART-2424_S2
  *Elset, elset=ASSEMBLY__S_SURF-PART-2525_S2
  *Elset, elset=ASSEMBLY__S_SURF-PART-2626_S2
  *Elset, elset=ASSEMBLY__S_SURF-PART-2727_S2
  *Elset, elset=ASSEMBLY__S_SURF-PART-2828_S2
  *Elset, elset=ASSEMBLY__S_SURF-PART-2929_S2
  *Elset, elset=ASSEMBLY__S_SURF-PART-3030_S2
  *Elset, elset=ASSEMBLY__S_SURF-PART-3131_S2
  *Elset, elset=ASSEMBLY__S_SURF-PART-3232_S2
  *Elset, elset=ASSEMBLY__S_SURF-PART-3333_S2
  *Elset, elset=ASSEMBLY__S_SURF-PART-33_S2
  *Elset, elset=ASSEMBLY__S_SURF-PART-3434_S2
  *Elset, elset=ASSEMBLY__S_SURF-PART-3535_S2
  *Elset, elset=ASSEMBLY__S_SURF-PART-3636_S2
  *Elset, elset=ASSEMBLY__S_SURF-PART-3737_S2
  *Elset, elset=ASSEMBLY__S_SURF-PART-3838_S2
  *Elset, elset=ASSEMBLY__S_SURF-PART-3939_S2
  *Elset, elset=ASSEMBLY__S_SURF-PART-4040_S2
  *Elset, elset=ASSEMBLY__S_SURF-PART-4141_S2
  *Elset, elset=ASSEMBLY__S_SURF-PART-4242_S2
  *Elset, elset=ASSEMBLY__S_SURF-PART-4343_S2
  *Elset, elset=ASSEMBLY__S_SURF-PART-4444_S2
  *Elset, elset=ASSEMBLY__S_SURF-PART-44_S2
  *Elset, elset=ASSEMBLY__S_SURF-PART-4545_S2
  *Elset, elset=ASSEMBLY__S_SURF-PART-4646_S2
  *Elset, elset=ASSEMBLY__S_SURF-PART-4747_S2
  *Elset, elset=ASSEMBLY__S_SURF-PART-4848_S2
  *Elset, elset=ASSEMBLY__S_SURF-PART-4949_S2
  *Elset, elset=ASSEMBLY__S_SURF-PART-5050_S2
  *Elset, elset=ASSEMBLY__S_SURF-PART-5151_S2
  *Elset, elset=ASSEMBLY__S_SURF-PART-5252_S2
  *Elset, elset=ASSEMBLY__S_SURF-PART-5353_S2
  *Elset, elset=ASSEMBLY__S_SURF-PART-5454_S2
  *Elset, elset=ASSEMBLY__S_SURF-PART-5555_S2
  *Elset, elset=ASSEMBLY__S_SURF-PART-55_S2
  *Elset, elset=ASSEMBLY__S_SURF-PART-5656_S2
  *Elset, elset=ASSEMBLY__S_SURF-PART-5757_S2
  *Elset, elset=ASSEMBLY__S_SURF-PART-5858_S2
  *Elset, elset=ASSEMBLY__S_SURF-PART-5959_S2
  *Elset, elset=ASSEMBLY__S_SURF-PART-6060_S2
  *Elset, elset=ASSEMBLY__S_SURF-PART-6161_S2
  *Elset, elset=ASSEMBLY__S_SURF-PART-6262_S2
  *Elset, elset=ASSEMBLY__S_SURF-PART-6363_S2
  *Elset, elset=ASSEMBLY__S_SURF-PART-6464_S2
  *Elset, elset=ASSEMBLY__S_SURF-PART-6565_S2
  *Elset, elset=ASSEMBLY__S_SURF-PART-6666_S2
  *Elset, elset=ASSEMBLY__S_SURF-PART-66_S2
  *Elset, elset=ASSEMBLY__S_SURF-PART-6767_S2
  *Elset, elset=ASSEMBLY__S_SURF-PART-6868_S2
  *Elset, elset=ASSEMBLY__S_SURF-PART-6969_S2
  *Elset, elset=ASSEMBLY__S_SURF-PART-7070_S2
  *Elset, elset=ASSEMBLY__S_SURF-PART-7171_S2
  *Elset, elset=ASSEMBLY__S_SURF-PART-7272_S2
  *Elset, elset=ASSEMBLY__S_SURF-PART-7373_S2
  *Elset, elset=ASSEMBLY__S_SURF-PART-7474_S2
  *Elset, elset=ASSEMBLY__S_SURF-PART-7575_S2
  *Elset, elset=ASSEMBLY__S_SURF-PART-7676_S2
  *Elset, elset=ASSEMBLY__S_SURF-PART-7777_S2
  *Elset, elset=ASSEMBLY__S_SURF-PART-77_S2
  *Elset, elset=ASSEMBLY__S_SURF-PART-7878_S2
  *Elset, elset=ASSEMBLY__S_SURF-PART-7979_S2
  *Elset, elset=ASSEMBLY__S_SURF-PART-8080_S2
  *Elset, elset=ASSEMBLY__S_SURF-PART-8181_S2
  *Elset, elset=ASSEMBLY__S_SURF-PART-8282_S2
  *Elset, elset=ASSEMBLY__S_SURF-PART-8383_S2
  *Elset, elset=ASSEMBLY__S_SURF-PART-8484_S2
  *Elset, elset=ASSEMBLY__S_SURF-PART-8585_S2
  *Elset, elset=ASSEMBLY__S_SURF-PART-8686_S2
  *Elset, elset=ASSEMBLY__S_SURF-PART-8787_S2
  *Elset, elset=ASSEMBLY__S_SURF-PART-8888_S2
  *Elset, elset=ASSEMBLY__S_SURF-PART-88_S2
  *Elset, elset=ASSEMBLY__S_SURF-PART-8989_S2
  *Elset, elset=ASSEMBLY__S_SURF-PART-9090_S2
  *Elset, elset=ASSEMBLY__S_SURF-PART-9191_S2
  *Elset, elset=ASSEMBLY__S_SURF-PART-9292_S2
  *Elset, elset=ASSEMBLY__S_SURF-PART-9393_S2
  *Elset, elset=ASSEMBLY__S_SURF-PART-9494_S2
  *Elset, elset=ASSEMBLY__S_SURF-PART-9595_S2
  *Elset, elset=ASSEMBLY__S_SURF-PART-9696_S2
  *Elset, elset=ASSEMBLY__S_SURF-PART-9797_S2
  *Elset, elset=ASSEMBLY__S_SURF-PART-9898_S2
  *Elset, elset=ASSEMBLY__S_SURF-PART-9999_S2
  *Elset, elset=ASSEMBLY__S_SURF-PART-99_S2
  *tie, name=ASSEMBLY_CONSTRAINT-MAINPART0, adjust=YES
  *tie, name=ASSEMBLY_CONSTRAINT-MAINPART1, adjust=YES
  *tie, name=ASSEMBLY_CONSTRAINT-MAINPART2, adjust=YES
  *tie, name=ASSEMBLY_CONSTRAINT-MAINPART3, adjust=YES
  *tie, name=ASSEMBLY_CONSTRAINT-MAINPART4, adjust=YES
  *tie, name=ASSEMBLY_CONSTRAINT-MAINPART5, adjust=YES
  *tie, name=ASSEMBLY_CONSTRAINT-MAINPART6, adjust=YES
  *tie, name=ASSEMBLY_CONSTRAINT-MAINPART7, adjust=YES
  *tie, name=ASSEMBLY_CONSTRAINT-MAINPART8, adjust=YES
  *tie, name=ASSEMBLY_CONSTRAINT-MAINPART9, adjust=YES
  *tie, name=ASSEMBLY_CONSTRAINT-MAINPART10, adjust=YES
  *tie, name=ASSEMBLY_CONSTRAINT-MAINPART11, adjust=YES
  *tie, name=ASSEMBLY_CONSTRAINT-MAINPART12, adjust=YES
  *tie, name=ASSEMBLY_CONSTRAINT-MAINPART13, adjust=YES
  *tie, name=ASSEMBLY_CONSTRAINT-MAINPART14, adjust=YES
  *tie, name=ASSEMBLY_CONSTRAINT-MAINPART15, adjust=YES
  *tie, name=ASSEMBLY_CONSTRAINT-MAINPART16, adjust=YES
  *tie, name=ASSEMBLY_CONSTRAINT-MAINPART17, adjust=YES
  *tie, name=ASSEMBLY_CONSTRAINT-MAINPART18, adjust=YES
  *tie, name=ASSEMBLY_CONSTRAINT-MAINPART19, adjust=YES
  *tie, name=ASSEMBLY_CONSTRAINT-MAINPART20, adjust=YES
  *tie, name=ASSEMBLY_CONSTRAINT-MAINPART21, adjust=YES
  *tie, name=ASSEMBLY_CONSTRAINT-MAINPART22, adjust=YES
  *tie, name=ASSEMBLY_CONSTRAINT-MAINPART23, adjust=YES
  *tie, name=ASSEMBLY_CONSTRAINT-MAINPART24, adjust=YES
  *tie, name=ASSEMBLY_CONSTRAINT-MAINPART25, adjust=YES
  *tie, name=ASSEMBLY_CONSTRAINT-MAINPART26, adjust=YES
  *tie, name=ASSEMBLY_CONSTRAINT-MAINPART27, adjust=YES
  *tie, name=ASSEMBLY_CONSTRAINT-MAINPART28, adjust=YES
  *tie, name=ASSEMBLY_CONSTRAINT-MAINPART29, adjust=YES
  *tie, name=ASSEMBLY_CONSTRAINT-MAINPART30, adjust=YES
  *tie, name=ASSEMBLY_CONSTRAINT-MAINPART31, adjust=YES
  *tie, name=ASSEMBLY_CONSTRAINT-MAINPART32, adjust=YES
  *tie, name=ASSEMBLY_CONSTRAINT-MAINPART33, adjust=YES
  *tie, name=ASSEMBLY_CONSTRAINT-MAINPART34, adjust=YES
  *tie, name=ASSEMBLY_CONSTRAINT-MAINPART35, adjust=YES
  *tie, name=ASSEMBLY_CONSTRAINT-MAINPART36, adjust=YES
  *tie, name=ASSEMBLY_CONSTRAINT-MAINPART37, adjust=YES
  *tie, name=ASSEMBLY_CONSTRAINT-MAINPART38, adjust=YES
  *tie, name=ASSEMBLY_CONSTRAINT-MAINPART39, adjust=YES
  *tie, name=ASSEMBLY_CONSTRAINT-MAINPART40, adjust=YES
  *tie, name=ASSEMBLY_CONSTRAINT-MAINPART41, adjust=YES
  *tie, name=ASSEMBLY_CONSTRAINT-MAINPART42, adjust=YES
  *tie, name=ASSEMBLY_CONSTRAINT-MAINPART43, adjust=YES
  *tie, name=ASSEMBLY_CONSTRAINT-MAINPART44, adjust=YES
  *tie, name=ASSEMBLY_CONSTRAINT-MAINPART45, adjust=YES
  *tie, name=ASSEMBLY_CONSTRAINT-MAINPART46, adjust=YES
  *tie, name=ASSEMBLY_CONSTRAINT-MAINPART47, adjust=YES
  *tie, name=ASSEMBLY_CONSTRAINT-MAINPART48, adjust=YES
  *tie, name=ASSEMBLY_CONSTRAINT-MAINPART49, adjust=YES
  *tie, name=ASSEMBLY_CONSTRAINT-MAINPART50, adjust=YES
  *tie, name=ASSEMBLY_CONSTRAINT-MAINPART51, adjust=YES
  *tie, name=ASSEMBLY_CONSTRAINT-MAINPART52, adjust=YES
  *tie, name=ASSEMBLY_CONSTRAINT-MAINPART53, adjust=YES
  *tie, name=ASSEMBLY_CONSTRAINT-MAINPART54, adjust=YES
  *tie, name=ASSEMBLY_CONSTRAINT-MAINPART55, adjust=YES
  *tie, name=ASSEMBLY_CONSTRAINT-MAINPART56, adjust=YES
  *tie, name=ASSEMBLY_CONSTRAINT-MAINPART57, adjust=YES
  *tie, name=ASSEMBLY_CONSTRAINT-MAINPART58, adjust=YES
  *tie, name=ASSEMBLY_CONSTRAINT-MAINPART59, adjust=YES
  *tie, name=ASSEMBLY_CONSTRAINT-MAINPART60, adjust=YES
  *tie, name=ASSEMBLY_CONSTRAINT-MAINPART61, adjust=YES
  *tie, name=ASSEMBLY_CONSTRAINT-MAINPART62, adjust=YES
  *tie, name=ASSEMBLY_CONSTRAINT-MAINPART63, adjust=YES
  *tie, name=ASSEMBLY_CONSTRAINT-MAINPART64, adjust=YES
  *tie, name=ASSEMBLY_CONSTRAINT-MAINPART65, adjust=YES
  *tie, name=ASSEMBLY_CONSTRAINT-MAINPART66, adjust=YES
  *tie, name=ASSEMBLY_CONSTRAINT-MAINPART67, adjust=YES
  *tie, name=ASSEMBLY_CONSTRAINT-MAINPART68, adjust=YES
  *tie, name=ASSEMBLY_CONSTRAINT-MAINPART69, adjust=YES
  *tie, name=ASSEMBLY_CONSTRAINT-MAINPART70, adjust=YES
  *tie, name=ASSEMBLY_CONSTRAINT-MAINPART71, adjust=YES
  *tie, name=ASSEMBLY_CONSTRAINT-MAINPART72, adjust=YES
  *tie, name=ASSEMBLY_CONSTRAINT-MAINPART73, adjust=YES
  *tie, name=ASSEMBLY_CONSTRAINT-MAINPART74, adjust=YES
  *tie, name=ASSEMBLY_CONSTRAINT-MAINPART75, adjust=YES
  *tie, name=ASSEMBLY_CONSTRAINT-MAINPART76, adjust=YES
  *tie, name=ASSEMBLY_CONSTRAINT-MAINPART77, adjust=YES
  *tie, name=ASSEMBLY_CONSTRAINT-MAINPART78, adjust=YES
  *tie, name=ASSEMBLY_CONSTRAINT-MAINPART79, adjust=YES
  *tie, name=ASSEMBLY_CONSTRAINT-MAINPART80, adjust=YES
  *tie, name=ASSEMBLY_CONSTRAINT-MAINPART81, adjust=YES
  *tie, name=ASSEMBLY_CONSTRAINT-MAINPART82, adjust=YES
  *tie, name=ASSEMBLY_CONSTRAINT-MAINPART83, adjust=YES
  *tie, name=ASSEMBLY_CONSTRAINT-MAINPART84, adjust=YES
  *tie, name=ASSEMBLY_CONSTRAINT-MAINPART85, adjust=YES
  *tie, name=ASSEMBLY_CONSTRAINT-MAINPART86, adjust=YES
  *tie, name=ASSEMBLY_CONSTRAINT-MAINPART87, adjust=YES
  *tie, name=ASSEMBLY_CONSTRAINT-MAINPART88, adjust=YES
  *tie, name=ASSEMBLY_CONSTRAINT-MAINPART89, adjust=YES
  *tie, name=ASSEMBLY_CONSTRAINT-MAINPART90, adjust=YES
  *tie, name=ASSEMBLY_CONSTRAINT-MAINPART91, adjust=YES
  *tie, name=ASSEMBLY_CONSTRAINT-MAINPART92, adjust=YES
  *tie, name=ASSEMBLY_CONSTRAINT-MAINPART93, adjust=YES
  *tie, name=ASSEMBLY_CONSTRAINT-MAINPART94, adjust=YES
  *tie, name=ASSEMBLY_CONSTRAINT-MAINPART95, adjust=YES
  *tie, name=ASSEMBLY_CONSTRAINT-MAINPART96, adjust=YES
  *tie, name=ASSEMBLY_CONSTRAINT-MAINPART97, adjust=YES
  *tie, name=ASSEMBLY_CONSTRAINT-MAINPART98, adjust=YES
  *tie, name=ASSEMBLY_CONSTRAINT-MAINPART99, adjust=YES
  *tie, name=ASSEMBLY_CONSTRAINT-MAINPART100, adjust=YES
  *tie, name=ASSEMBLY_CONSTRAINT-MAINPART101, adjust=YES
  *tie, name=ASSEMBLY_CONSTRAINT-MAINPART102, adjust=YES
  *tie, name=ASSEMBLY_CONSTRAINT-MAINPART103, adjust=YES
  *tie, name=ASSEMBLY_CONSTRAINT-MAINPART104, adjust=YES
  *tie, name=ASSEMBLY_CONSTRAINT-MAINPART105, adjust=YES
  *tie, name=ASSEMBLY_CONSTRAINT-MAINPART106, adjust=YES
  *tie, name=ASSEMBLY_CONSTRAINT-MAINPART107, adjust=YES
  *tie, name=ASSEMBLY_CONSTRAINT-MAINPART108, adjust=YES
  *tie, name=ASSEMBLY_CONSTRAINT-MAINPART109, adjust=YES
  *tie, name=ASSEMBLY_CONSTRAINT-MAINPART110, adjust=YES
  *tie, name=ASSEMBLY_CONSTRAINT-MAINPART111, adjust=YES
  *tie, name=ASSEMBLY_CONSTRAINT-MAINPART112, adjust=YES
  *tie, name=ASSEMBLY_CONSTRAINT-MAINPART113, adjust=YES
  *tie, name=ASSEMBLY_CONSTRAINT-MAINPART114, adjust=YES
  *tie, name=ASSEMBLY_CONSTRAINT-MAINPART115, adjust=YES
  *tie, name=ASSEMBLY_CONSTRAINT-MAINPART116, adjust=YES
  *tie, name=ASSEMBLY_CONSTRAINT-MAINPART117, adjust=YES
  *tie, name=ASSEMBLY_CONSTRAINT-MAINPART118, adjust=YES
  *tie, name=ASSEMBLY_CONSTRAINT-MAINPART119, adjust=YES
  *tie, name=ASSEMBLY_CONSTRAINT-MAINPART120, adjust=YES
  *tie, name=ASSEMBLY_CONSTRAINT-MAINPART121, adjust=YES
  *tie, name=ASSEMBLY_CONSTRAINT-MAINPART122, adjust=YES
  *tie, name=ASSEMBLY_CONSTRAINT-MAINPART123, adjust=YES
  *tie, name=ASSEMBLY_CONSTRAINT-MAINPART124, adjust=YES
  *tie, name=ASSEMBLY_CONSTRAINT-MAINPART125, adjust=YES
  *tie, name=ASSEMBLY_CONSTRAINT-MAINPART0, adjust=YES
  *tie, name=ASSEMBLY_CONSTRAINT-MAINPART1, adjust=YES
  *tie, name=ASSEMBLY_CONSTRAINT-MAINPART2, adjust=YES
  *tie, name=ASSEMBLY_CONSTRAINT-MAINPART3, adjust=YES
  *tie, name=ASSEMBLY_CONSTRAINT-MAINPART4, adjust=YES
  *tie, name=ASSEMBLY_CONSTRAINT-MAINPART5, adjust=YES
  *tie, name=ASSEMBLY_CONSTRAINT-MAINPART6, adjust=YES
  *tie, name=ASSEMBLY_CONSTRAINT-MAINPART7, adjust=YES
  *tie, name=ASSEMBLY_CONSTRAINT-MAINPART8, adjust=YES
  *tie, name=ASSEMBLY_CONSTRAINT-MAINPART9, adjust=YES
  *tie, name=ASSEMBLY_CONSTRAINT-MAINPART10, adjust=YES
  *tie, name=ASSEMBLY_CONSTRAINT-MAINPART11, adjust=YES
  *tie, name=ASSEMBLY_CONSTRAINT-MAINPART12, adjust=YES
  *tie, name=ASSEMBLY_CONSTRAINT-MAINPART13, adjust=YES
  *tie, name=ASSEMBLY_CONSTRAINT-MAINPART14, adjust=YES
  *tie, name=ASSEMBLY_CONSTRAINT-MAINPART15, adjust=YES
  *tie, name=ASSEMBLY_CONSTRAINT-MAINPART16, adjust=YES
  *tie, name=ASSEMBLY_CONSTRAINT-MAINPART17, adjust=YES
  *tie, name=ASSEMBLY_CONSTRAINT-MAINPART18, adjust=YES
  *tie, name=ASSEMBLY_CONSTRAINT-MAINPART19, adjust=YES
  *tie, name=ASSEMBLY_CONSTRAINT-MAINPART20, adjust=YES
  *tie, name=ASSEMBLY_CONSTRAINT-MAINPART21, adjust=YES
  *tie, name=ASSEMBLY_CONSTRAINT-MAINPART22, adjust=YES
  *tie, name=ASSEMBLY_CONSTRAINT-MAINPART23, adjust=YES
  *tie, name=ASSEMBLY_CONSTRAINT-MAINPART24, adjust=YES
  *tie, name=ASSEMBLY_CONSTRAINT-MAINPART25, adjust=YES
  *tie, name=ASSEMBLY_CONSTRAINT-MAINPART26, adjust=YES
  *tie, name=ASSEMBLY_CONSTRAINT-MAINPART27, adjust=YES
  *tie, name=ASSEMBLY_CONSTRAINT-MAINPART28, adjust=YES
  *tie, name=ASSEMBLY_CONSTRAINT-MAINPART29, adjust=YES
  *tie, name=ASSEMBLY_CONSTRAINT-MAINPART30, adjust=YES
  *tie, name=ASSEMBLY_CONSTRAINT-MAINPART31, adjust=YES
  *tie, name=ASSEMBLY_CONSTRAINT-MAINPART32, adjust=YES
  *tie, name=ASSEMBLY_CONSTRAINT-MAINPART33, adjust=YES
  *tie, name=ASSEMBLY_CONSTRAINT-MAINPART34, adjust=YES
  *tie, name=ASSEMBLY_CONSTRAINT-MAINPART35, adjust=YES
  *tie, name=ASSEMBLY_CONSTRAINT-MAINPART36, adjust=YES
  *tie, name=ASSEMBLY_CONSTRAINT-MAINPART37, adjust=YES
  *tie, name=ASSEMBLY_CONSTRAINT-MAINPART38, adjust=YES
  *tie, name=ASSEMBLY_CONSTRAINT-MAINPART39, adjust=YES
  *tie, name=ASSEMBLY_CONSTRAINT-MAINPART40, adjust=YES
  *tie, name=ASSEMBLY_CONSTRAINT-MAINPART41, adjust=YES
  *tie, name=ASSEMBLY_CONSTRAINT-MAINPART42, adjust=YES
  *tie, name=ASSEMBLY_CONSTRAINT-MAINPART43, adjust=YES
  *tie, name=ASSEMBLY_CONSTRAINT-MAINPART44, adjust=YES
  *tie, name=ASSEMBLY_CONSTRAINT-MAINPART45, adjust=YES
  *tie, name=ASSEMBLY_CONSTRAINT-MAINPART46, adjust=YES
  *tie, name=ASSEMBLY_CONSTRAINT-MAINPART47, adjust=YES
  *tie, name=ASSEMBLY_CONSTRAINT-MAINPART48, adjust=YES
  *tie, name=ASSEMBLY_CONSTRAINT-MAINPART49, adjust=YES
  *tie, name=ASSEMBLY_CONSTRAINT-MAINPART50, adjust=YES
  *tie, name=ASSEMBLY_CONSTRAINT-MAINPART51, adjust=YES
  *tie, name=ASSEMBLY_CONSTRAINT-MAINPART52, adjust=YES
  *tie, name=ASSEMBLY_CONSTRAINT-MAINPART53, adjust=YES
  *tie, name=ASSEMBLY_CONSTRAINT-MAINPART54, adjust=YES
  *tie, name=ASSEMBLY_CONSTRAINT-MAINPART55, adjust=YES
  *tie, name=ASSEMBLY_CONSTRAINT-MAINPART56, adjust=YES
  *tie, name=ASSEMBLY_CONSTRAINT-MAINPART57, adjust=YES
  *tie, name=ASSEMBLY_CONSTRAINT-MAINPART58, adjust=YES
  *tie, name=ASSEMBLY_CONSTRAINT-MAINPART59, adjust=YES
  *tie, name=ASSEMBLY_CONSTRAINT-MAINPART60, adjust=YES
  *tie, name=ASSEMBLY_CONSTRAINT-MAINPART61, adjust=YES
  *tie, name=ASSEMBLY_CONSTRAINT-MAINPART62, adjust=YES
  *tie, name=ASSEMBLY_CONSTRAINT-MAINPART63, adjust=YES
  *tie, name=ASSEMBLY_CONSTRAINT-MAINPART64, adjust=YES
  *tie, name=ASSEMBLY_CONSTRAINT-MAINPART65, adjust=YES
  *tie, name=ASSEMBLY_CONSTRAINT-MAINPART66, adjust=YES
  *tie, name=ASSEMBLY_CONSTRAINT-MAINPART67, adjust=YES
  *tie, name=ASSEMBLY_CONSTRAINT-MAINPART68, adjust=YES
  *tie, name=ASSEMBLY_CONSTRAINT-MAINPART69, adjust=YES
  *tie, name=ASSEMBLY_CONSTRAINT-MAINPART70, adjust=YES
  *tie, name=ASSEMBLY_CONSTRAINT-MAINPART71, adjust=YES
  *tie, name=ASSEMBLY_CONSTRAINT-MAINPART72, adjust=YES
  *tie, name=ASSEMBLY_CONSTRAINT-MAINPART73, adjust=YES
  *tie, name=ASSEMBLY_CONSTRAINT-MAINPART74, adjust=YES
  *tie, name=ASSEMBLY_CONSTRAINT-MAINPART75, adjust=YES
  *tie, name=ASSEMBLY_CONSTRAINT-MAINPART76, adjust=YES
  *tie, name=ASSEMBLY_CONSTRAINT-MAINPART77, adjust=YES
  *tie, name=ASSEMBLY_CONSTRAINT-MAINPART78, adjust=YES
  *tie, name=ASSEMBLY_CONSTRAINT-MAINPART79, adjust=YES
  *tie, name=ASSEMBLY_CONSTRAINT-MAINPART80, adjust=YES
  *tie, name=ASSEMBLY_CONSTRAINT-MAINPART81, adjust=YES
  *tie, name=ASSEMBLY_CONSTRAINT-MAINPART82, adjust=YES
  *tie, name=ASSEMBLY_CONSTRAINT-MAINPART83, adjust=YES
  *tie, name=ASSEMBLY_CONSTRAINT-MAINPART84, adjust=YES
  *tie, name=ASSEMBLY_CONSTRAINT-MAINPART85, adjust=YES
  *tie, name=ASSEMBLY_CONSTRAINT-MAINPART86, adjust=YES
  *tie, name=ASSEMBLY_CONSTRAINT-MAINPART87, adjust=YES
  *tie, name=ASSEMBLY_CONSTRAINT-MAINPART88, adjust=YES
  *tie, name=ASSEMBLY_CONSTRAINT-MAINPART89, adjust=YES
  *tie, name=ASSEMBLY_CONSTRAINT-MAINPART90, adjust=YES
  *tie, name=ASSEMBLY_CONSTRAINT-MAINPART91, adjust=YES
  *tie, name=ASSEMBLY_CONSTRAINT-MAINPART92, adjust=YES
  *tie, name=ASSEMBLY_CONSTRAINT-MAINPART93, adjust=YES
  *tie, name=ASSEMBLY_CONSTRAINT-MAINPART94, adjust=YES
  *tie, name=ASSEMBLY_CONSTRAINT-MAINPART95, adjust=YES
  *tie, name=ASSEMBLY_CONSTRAINT-MAINPART96, adjust=YES
  *tie, name=ASSEMBLY_CONSTRAINT-MAINPART97, adjust=YES
  *tie, name=ASSEMBLY_CONSTRAINT-MAINPART98, adjust=YES
  *tie, name=ASSEMBLY_CONSTRAINT-MAINPART99, adjust=YES
  *tie, name=ASSEMBLY_CONSTRAINT-MAINPART100, adjust=YES
  *tie, name=ASSEMBLY_CONSTRAINT-MAINPART101, adjust=YES
  *tie, name=ASSEMBLY_CONSTRAINT-MAINPART102, adjust=YES
  *tie, name=ASSEMBLY_CONSTRAINT-MAINPART103, adjust=YES
  *tie, name=ASSEMBLY_CONSTRAINT-MAINPART104, adjust=YES
  *tie, name=ASSEMBLY_CONSTRAINT-MAINPART105, adjust=YES
  *tie, name=ASSEMBLY_CONSTRAINT-MAINPART106, adjust=YES
  *tie, name=ASSEMBLY_CONSTRAINT-MAINPART107, adjust=YES
  *tie, name=ASSEMBLY_CONSTRAINT-MAINPART108, adjust=YES
  *tie, name=ASSEMBLY_CONSTRAINT-MAINPART109, adjust=YES
  *tie, name=ASSEMBLY_CONSTRAINT-MAINPART110, adjust=YES
  *tie, name=ASSEMBLY_CONSTRAINT-MAINPART111, adjust=YES
  *tie, name=ASSEMBLY_CONSTRAINT-MAINPART112, adjust=YES
  *tie, name=ASSEMBLY_CONSTRAINT-MAINPART113, adjust=YES
  *tie, name=ASSEMBLY_CONSTRAINT-MAINPART114, adjust=YES
  *tie, name=ASSEMBLY_CONSTRAINT-MAINPART115, adjust=YES
  *tie, name=ASSEMBLY_CONSTRAINT-MAINPART116, adjust=YES
  *tie, name=ASSEMBLY_CONSTRAINT-MAINPART117, adjust=YES
  *tie, name=ASSEMBLY_CONSTRAINT-MAINPART118, adjust=YES
  *tie, name=ASSEMBLY_CONSTRAINT-MAINPART119, adjust=YES
  *tie, name=ASSEMBLY_CONSTRAINT-MAINPART120, adjust=YES
  *tie, name=ASSEMBLY_CONSTRAINT-MAINPART121, adjust=YES
  *tie, name=ASSEMBLY_CONSTRAINT-MAINPART122, adjust=YES
  *tie, name=ASSEMBLY_CONSTRAINT-MAINPART123, adjust=YES
  *tie, name=ASSEMBLY_CONSTRAINT-MAINPART124, adjust=YES
  *tie, name=ASSEMBLY_CONSTRAINT-MAINPART125, adjust=YES
  *surface, type=ELEMENT, name=ASSEMBLY_SURF-1
  *surface, type=ELEMENT, name=ASSEMBLY_M_SURF-MAINPART0
  *surface, type=ELEMENT, name=ASSEMBLY_M_SURF-MAINPART1
  *surface, type=ELEMENT, name=ASSEMBLY_M_SURF-MAINPART2
  *surface, type=ELEMENT, name=ASSEMBLY_M_SURF-MAINPART3
  *surface, type=ELEMENT, name=ASSEMBLY_M_SURF-MAINPART4
  *surface, type=ELEMENT, name=ASSEMBLY_M_SURF-MAINPART5
  *surface, type=ELEMENT, name=ASSEMBLY_M_SURF-MAINPART6
  *surface, type=ELEMENT, name=ASSEMBLY_M_SURF-MAINPART7
  *surface, type=ELEMENT, name=ASSEMBLY_M_SURF-MAINPART8
  *surface, type=ELEMENT, name=ASSEMBLY_M_SURF-MAINPART9
  *surface, type=ELEMENT, name=ASSEMBLY_M_SURF-MAINPART10
  *surface, type=ELEMENT, name=ASSEMBLY_M_SURF-MAINPART11
  *surface, type=ELEMENT, name=ASSEMBLY_M_SURF-MAINPART12
  *surface, type=ELEMENT, name=ASSEMBLY_M_SURF-MAINPART13
  *surface, type=ELEMENT, name=ASSEMBLY_M_SURF-MAINPART14
  *surface, type=ELEMENT, name=ASSEMBLY_M_SURF-MAINPART15
  *surface, type=ELEMENT, name=ASSEMBLY_M_SURF-MAINPART16
  *surface, type=ELEMENT, name=ASSEMBLY_M_SURF-MAINPART17
  *surface, type=ELEMENT, name=ASSEMBLY_M_SURF-MAINPART18
  *surface, type=ELEMENT, name=ASSEMBLY_M_SURF-MAINPART19
  *surface, type=ELEMENT, name=ASSEMBLY_M_SURF-MAINPART20
  *surface, type=ELEMENT, name=ASSEMBLY_M_SURF-MAINPART21
  *surface, type=ELEMENT, name=ASSEMBLY_M_SURF-MAINPART22
  *surface, type=ELEMENT, name=ASSEMBLY_M_SURF-MAINPART23
  *surface, type=ELEMENT, name=ASSEMBLY_M_SURF-MAINPART24
  *surface, type=ELEMENT, name=ASSEMBLY_M_SURF-MAINPART25
  *surface, type=ELEMENT, name=ASSEMBLY_M_SURF-MAINPART26
  *surface, type=ELEMENT, name=ASSEMBLY_M_SURF-MAINPART27
  *surface, type=ELEMENT, name=ASSEMBLY_M_SURF-MAINPART28
  *surface, type=ELEMENT, name=ASSEMBLY_M_SURF-MAINPART29
  *surface, type=ELEMENT, name=ASSEMBLY_M_SURF-MAINPART30
  *surface, type=ELEMENT, name=ASSEMBLY_M_SURF-MAINPART31
  *surface, type=ELEMENT, name=ASSEMBLY_M_SURF-MAINPART32
  *surface, type=ELEMENT, name=ASSEMBLY_M_SURF-MAINPART33
  *surface, type=ELEMENT, name=ASSEMBLY_M_SURF-MAINPART34
  *surface, type=ELEMENT, name=ASSEMBLY_M_SURF-MAINPART35
  *surface, type=ELEMENT, name=ASSEMBLY_M_SURF-MAINPART36
  *surface, type=ELEMENT, name=ASSEMBLY_M_SURF-MAINPART37
  *surface, type=ELEMENT, name=ASSEMBLY_M_SURF-MAINPART38
  *surface, type=ELEMENT, name=ASSEMBLY_M_SURF-MAINPART39
  *surface, type=ELEMENT, name=ASSEMBLY_M_SURF-MAINPART40
  *surface, type=ELEMENT, name=ASSEMBLY_M_SURF-MAINPART41
  *surface, type=ELEMENT, name=ASSEMBLY_M_SURF-MAINPART42
  *surface, type=ELEMENT, name=ASSEMBLY_M_SURF-MAINPART43
  *surface, type=ELEMENT, name=ASSEMBLY_M_SURF-MAINPART44
  *surface, type=ELEMENT, name=ASSEMBLY_M_SURF-MAINPART45
  *surface, type=ELEMENT, name=ASSEMBLY_M_SURF-MAINPART46
  *surface, type=ELEMENT, name=ASSEMBLY_M_SURF-MAINPART47
  *surface, type=ELEMENT, name=ASSEMBLY_M_SURF-MAINPART48

 ***NOTE: DUE TO EXCESSIVE REPORTING, THE ECHO OF THE *SURFACE OPTION IS BEING 
          SUPPRESSED.
  *tie, name=ASSEMBLY_CONSTRAINT-MAINPART0, adjust=YES
  *tie, name=ASSEMBLY_CONSTRAINT-MAINPART1, adjust=YES
  *tie, name=ASSEMBLY_CONSTRAINT-MAINPART2, adjust=YES
  *tie, name=ASSEMBLY_CONSTRAINT-MAINPART3, adjust=YES
  *tie, name=ASSEMBLY_CONSTRAINT-MAINPART4, adjust=YES
  *tie, name=ASSEMBLY_CONSTRAINT-MAINPART5, adjust=YES
  *tie, name=ASSEMBLY_CONSTRAINT-MAINPART6, adjust=YES
  *tie, name=ASSEMBLY_CONSTRAINT-MAINPART7, adjust=YES
  *tie, name=ASSEMBLY_CONSTRAINT-MAINPART8, adjust=YES
  *tie, name=ASSEMBLY_CONSTRAINT-MAINPART9, adjust=YES
  *tie, name=ASSEMBLY_CONSTRAINT-MAINPART10, adjust=YES
  *tie, name=ASSEMBLY_CONSTRAINT-MAINPART11, adjust=YES
  *tie, name=ASSEMBLY_CONSTRAINT-MAINPART12, adjust=YES
  *tie, name=ASSEMBLY_CONSTRAINT-MAINPART13, adjust=YES
  *tie, name=ASSEMBLY_CONSTRAINT-MAINPART14, adjust=YES
  *tie, name=ASSEMBLY_CONSTRAINT-MAINPART15, adjust=YES
  *tie, name=ASSEMBLY_CONSTRAINT-MAINPART16, adjust=YES
  *tie, name=ASSEMBLY_CONSTRAINT-MAINPART17, adjust=YES
  *tie, name=ASSEMBLY_CONSTRAINT-MAINPART18, adjust=YES
  *tie, name=ASSEMBLY_CONSTRAINT-MAINPART19, adjust=YES
  *tie, name=ASSEMBLY_CONSTRAINT-MAINPART20, adjust=YES
  *tie, name=ASSEMBLY_CONSTRAINT-MAINPART21, adjust=YES
  *tie, name=ASSEMBLY_CONSTRAINT-MAINPART22, adjust=YES
  *tie, name=ASSEMBLY_CONSTRAINT-MAINPART23, adjust=YES
  *tie, name=ASSEMBLY_CONSTRAINT-MAINPART24, adjust=YES
  *tie, name=ASSEMBLY_CONSTRAINT-MAINPART25, adjust=YES
  *tie, name=ASSEMBLY_CONSTRAINT-MAINPART26, adjust=YES
  *tie, name=ASSEMBLY_CONSTRAINT-MAINPART27, adjust=YES
  *tie, name=ASSEMBLY_CONSTRAINT-MAINPART28, adjust=YES
  *tie, name=ASSEMBLY_CONSTRAINT-MAINPART29, adjust=YES
  *tie, name=ASSEMBLY_CONSTRAINT-MAINPART30, adjust=YES
  *tie, name=ASSEMBLY_CONSTRAINT-MAINPART31, adjust=YES
  *tie, name=ASSEMBLY_CONSTRAINT-MAINPART32, adjust=YES
  *tie, name=ASSEMBLY_CONSTRAINT-MAINPART33, adjust=YES
  *tie, name=ASSEMBLY_CONSTRAINT-MAINPART34, adjust=YES
  *tie, name=ASSEMBLY_CONSTRAINT-MAINPART35, adjust=YES
  *tie, name=ASSEMBLY_CONSTRAINT-MAINPART36, adjust=YES
  *tie, name=ASSEMBLY_CONSTRAINT-MAINPART37, adjust=YES
  *tie, name=ASSEMBLY_CONSTRAINT-MAINPART38, adjust=YES
  *tie, name=ASSEMBLY_CONSTRAINT-MAINPART39, adjust=YES
  *tie, name=ASSEMBLY_CONSTRAINT-MAINPART40, adjust=YES
  *tie, name=ASSEMBLY_CONSTRAINT-MAINPART41, adjust=YES
  *tie, name=ASSEMBLY_CONSTRAINT-MAINPART42, adjust=YES
  *tie, name=ASSEMBLY_CONSTRAINT-MAINPART43, adjust=YES
  *tie, name=ASSEMBLY_CONSTRAINT-MAINPART44, adjust=YES
  *tie, name=ASSEMBLY_CONSTRAINT-MAINPART45, adjust=YES
  *tie, name=ASSEMBLY_CONSTRAINT-MAINPART46, adjust=YES
  *tie, name=ASSEMBLY_CONSTRAINT-MAINPART47, adjust=YES
  *tie, name=ASSEMBLY_CONSTRAINT-MAINPART48, adjust=YES
  *tie, name=ASSEMBLY_CONSTRAINT-MAINPART49, adjust=YES
  *tie, name=ASSEMBLY_CONSTRAINT-MAINPART50, adjust=YES
  *tie, name=ASSEMBLY_CONSTRAINT-MAINPART51, adjust=YES
  *tie, name=ASSEMBLY_CONSTRAINT-MAINPART52, adjust=YES
  *tie, name=ASSEMBLY_CONSTRAINT-MAINPART53, adjust=YES
  *tie, name=ASSEMBLY_CONSTRAINT-MAINPART54, adjust=YES
  *tie, name=ASSEMBLY_CONSTRAINT-MAINPART55, adjust=YES
  *tie, name=ASSEMBLY_CONSTRAINT-MAINPART56, adjust=YES
  *tie, name=ASSEMBLY_CONSTRAINT-MAINPART57, adjust=YES
  *tie, name=ASSEMBLY_CONSTRAINT-MAINPART58, adjust=YES
  *tie, name=ASSEMBLY_CONSTRAINT-MAINPART59, adjust=YES
  *tie, name=ASSEMBLY_CONSTRAINT-MAINPART60, adjust=YES
  *tie, name=ASSEMBLY_CONSTRAINT-MAINPART61, adjust=YES
  *tie, name=ASSEMBLY_CONSTRAINT-MAINPART62, adjust=YES
  *tie, name=ASSEMBLY_CONSTRAINT-MAINPART63, adjust=YES
  *tie, name=ASSEMBLY_CONSTRAINT-MAINPART64, adjust=YES
  *tie, name=ASSEMBLY_CONSTRAINT-MAINPART65, adjust=YES
  *tie, name=ASSEMBLY_CONSTRAINT-MAINPART66, adjust=YES
  *tie, name=ASSEMBLY_CONSTRAINT-MAINPART67, adjust=YES
  *tie, name=ASSEMBLY_CONSTRAINT-MAINPART68, adjust=YES
  *tie, name=ASSEMBLY_CONSTRAINT-MAINPART69, adjust=YES
  *tie, name=ASSEMBLY_CONSTRAINT-MAINPART70, adjust=YES
  *tie, name=ASSEMBLY_CONSTRAINT-MAINPART71, adjust=YES
  *tie, name=ASSEMBLY_CONSTRAINT-MAINPART72, adjust=YES
  *tie, name=ASSEMBLY_CONSTRAINT-MAINPART73, adjust=YES
  *tie, name=ASSEMBLY_CONSTRAINT-MAINPART74, adjust=YES
  *tie, name=ASSEMBLY_CONSTRAINT-MAINPART75, adjust=YES
  *tie, name=ASSEMBLY_CONSTRAINT-MAINPART76, adjust=YES
  *tie, name=ASSEMBLY_CONSTRAINT-MAINPART77, adjust=YES
  *tie, name=ASSEMBLY_CONSTRAINT-MAINPART78, adjust=YES
  *tie, name=ASSEMBLY_CONSTRAINT-MAINPART79, adjust=YES
  *tie, name=ASSEMBLY_CONSTRAINT-MAINPART80, adjust=YES
  *tie, name=ASSEMBLY_CONSTRAINT-MAINPART81, adjust=YES
  *tie, name=ASSEMBLY_CONSTRAINT-MAINPART82, adjust=YES
  *tie, name=ASSEMBLY_CONSTRAINT-MAINPART83, adjust=YES
  *tie, name=ASSEMBLY_CONSTRAINT-MAINPART84, adjust=YES
  *tie, name=ASSEMBLY_CONSTRAINT-MAINPART85, adjust=YES
  *tie, name=ASSEMBLY_CONSTRAINT-MAINPART86, adjust=YES
  *tie, name=ASSEMBLY_CONSTRAINT-MAINPART87, adjust=YES
  *tie, name=ASSEMBLY_CONSTRAINT-MAINPART88, adjust=YES
  *tie, name=ASSEMBLY_CONSTRAINT-MAINPART89, adjust=YES
  *tie, name=ASSEMBLY_CONSTRAINT-MAINPART90, adjust=YES
  *tie, name=ASSEMBLY_CONSTRAINT-MAINPART91, adjust=YES
  *tie, name=ASSEMBLY_CONSTRAINT-MAINPART92, adjust=YES
  *tie, name=ASSEMBLY_CONSTRAINT-MAINPART93, adjust=YES
  *tie, name=ASSEMBLY_CONSTRAINT-MAINPART94, adjust=YES
  *tie, name=ASSEMBLY_CONSTRAINT-MAINPART95, adjust=YES
  *tie, name=ASSEMBLY_CONSTRAINT-MAINPART96, adjust=YES
  *tie, name=ASSEMBLY_CONSTRAINT-MAINPART97, adjust=YES
  *tie, name=ASSEMBLY_CONSTRAINT-MAINPART98, adjust=YES
  *tie, name=ASSEMBLY_CONSTRAINT-MAINPART99, adjust=YES
  *tie, name=ASSEMBLY_CONSTRAINT-MAINPART100, adjust=YES
  *tie, name=ASSEMBLY_CONSTRAINT-MAINPART101, adjust=YES
  *tie, name=ASSEMBLY_CONSTRAINT-MAINPART102, adjust=YES
  *tie, name=ASSEMBLY_CONSTRAINT-MAINPART103, adjust=YES
  *tie, name=ASSEMBLY_CONSTRAINT-MAINPART104, adjust=YES
  *tie, name=ASSEMBLY_CONSTRAINT-MAINPART105, adjust=YES
  *tie, name=ASSEMBLY_CONSTRAINT-MAINPART106, adjust=YES
  *tie, name=ASSEMBLY_CONSTRAINT-MAINPART107, adjust=YES
  *tie, name=ASSEMBLY_CONSTRAINT-MAINPART108, adjust=YES
  *tie, name=ASSEMBLY_CONSTRAINT-MAINPART109, adjust=YES
  *tie, name=ASSEMBLY_CONSTRAINT-MAINPART110, adjust=YES
  *tie, name=ASSEMBLY_CONSTRAINT-MAINPART111, adjust=YES
  *tie, name=ASSEMBLY_CONSTRAINT-MAINPART112, adjust=YES
  *tie, name=ASSEMBLY_CONSTRAINT-MAINPART113, adjust=YES
  *tie, name=ASSEMBLY_CONSTRAINT-MAINPART114, adjust=YES
  *tie, name=ASSEMBLY_CONSTRAINT-MAINPART115, adjust=YES
  *tie, name=ASSEMBLY_CONSTRAINT-MAINPART116, adjust=YES
  *tie, name=ASSEMBLY_CONSTRAINT-MAINPART117, adjust=YES
  *tie, name=ASSEMBLY_CONSTRAINT-MAINPART118, adjust=YES
  *tie, name=ASSEMBLY_CONSTRAINT-MAINPART119, adjust=YES
  *tie, name=ASSEMBLY_CONSTRAINT-MAINPART120, adjust=YES
  *tie, name=ASSEMBLY_CONSTRAINT-MAINPART121, adjust=YES
  *tie, name=ASSEMBLY_CONSTRAINT-MAINPART122, adjust=YES
  *tie, name=ASSEMBLY_CONSTRAINT-MAINPART123, adjust=YES
  *tie, name=ASSEMBLY_CONSTRAINT-MAINPART124, adjust=YES
  *tie, name=ASSEMBLY_CONSTRAINT-MAINPART125, adjust=YES
  *tie, name=ASSEMBLY_CONSTRAINT-MAINPART0, adjust=YES
  *tie, name=ASSEMBLY_CONSTRAINT-MAINPART1, adjust=YES
  *tie, name=ASSEMBLY_CONSTRAINT-MAINPART2, adjust=YES
  *tie, name=ASSEMBLY_CONSTRAINT-MAINPART3, adjust=YES
  *tie, name=ASSEMBLY_CONSTRAINT-MAINPART4, adjust=YES
  *tie, name=ASSEMBLY_CONSTRAINT-MAINPART5, adjust=YES
  *tie, name=ASSEMBLY_CONSTRAINT-MAINPART6, adjust=YES
  *tie, name=ASSEMBLY_CONSTRAINT-MAINPART7, adjust=YES
  *tie, name=ASSEMBLY_CONSTRAINT-MAINPART8, adjust=YES
  *tie, name=ASSEMBLY_CONSTRAINT-MAINPART9, adjust=YES
  *tie, name=ASSEMBLY_CONSTRAINT-MAINPART10, adjust=YES
  *tie, name=ASSEMBLY_CONSTRAINT-MAINPART11, adjust=YES
  *tie, name=ASSEMBLY_CONSTRAINT-MAINPART12, adjust=YES
  *tie, name=ASSEMBLY_CONSTRAINT-MAINPART13, adjust=YES
  *tie, name=ASSEMBLY_CONSTRAINT-MAINPART14, adjust=YES
  *tie, name=ASSEMBLY_CONSTRAINT-MAINPART15, adjust=YES
  *tie, name=ASSEMBLY_CONSTRAINT-MAINPART16, adjust=YES
  *tie, name=ASSEMBLY_CONSTRAINT-MAINPART17, adjust=YES
  *tie, name=ASSEMBLY_CONSTRAINT-MAINPART18, adjust=YES
  *tie, name=ASSEMBLY_CONSTRAINT-MAINPART19, adjust=YES
  *tie, name=ASSEMBLY_CONSTRAINT-MAINPART20, adjust=YES
  *tie, name=ASSEMBLY_CONSTRAINT-MAINPART21, adjust=YES
  *tie, name=ASSEMBLY_CONSTRAINT-MAINPART22, adjust=YES
  *tie, name=ASSEMBLY_CONSTRAINT-MAINPART23, adjust=YES
  *tie, name=ASSEMBLY_CONSTRAINT-MAINPART24, adjust=YES
  *tie, name=ASSEMBLY_CONSTRAINT-MAINPART25, adjust=YES
  *tie, name=ASSEMBLY_CONSTRAINT-MAINPART26, adjust=YES
  *tie, name=ASSEMBLY_CONSTRAINT-MAINPART27, adjust=YES
  *tie, name=ASSEMBLY_CONSTRAINT-MAINPART28, adjust=YES
  *tie, name=ASSEMBLY_CONSTRAINT-MAINPART29, adjust=YES
  *tie, name=ASSEMBLY_CONSTRAINT-MAINPART30, adjust=YES
  *tie, name=ASSEMBLY_CONSTRAINT-MAINPART31, adjust=YES
  *tie, name=ASSEMBLY_CONSTRAINT-MAINPART32, adjust=YES
  *tie, name=ASSEMBLY_CONSTRAINT-MAINPART33, adjust=YES
  *tie, name=ASSEMBLY_CONSTRAINT-MAINPART34, adjust=YES
  *tie, name=ASSEMBLY_CONSTRAINT-MAINPART35, adjust=YES
  *tie, name=ASSEMBLY_CONSTRAINT-MAINPART36, adjust=YES
  *tie, name=ASSEMBLY_CONSTRAINT-MAINPART37, adjust=YES
  *tie, name=ASSEMBLY_CONSTRAINT-MAINPART38, adjust=YES
  *tie, name=ASSEMBLY_CONSTRAINT-MAINPART39, adjust=YES
  *tie, name=ASSEMBLY_CONSTRAINT-MAINPART40, adjust=YES
  *tie, name=ASSEMBLY_CONSTRAINT-MAINPART41, adjust=YES
  *tie, name=ASSEMBLY_CONSTRAINT-MAINPART42, adjust=YES
  *tie, name=ASSEMBLY_CONSTRAINT-MAINPART43, adjust=YES
  *tie, name=ASSEMBLY_CONSTRAINT-MAINPART44, adjust=YES
  *tie, name=ASSEMBLY_CONSTRAINT-MAINPART45, adjust=YES
  *tie, name=ASSEMBLY_CONSTRAINT-MAINPART46, adjust=YES
  *tie, name=ASSEMBLY_CONSTRAINT-MAINPART47, adjust=YES
  *tie, name=ASSEMBLY_CONSTRAINT-MAINPART48, adjust=YES
  *tie, name=ASSEMBLY_CONSTRAINT-MAINPART49, adjust=YES
  *tie, name=ASSEMBLY_CONSTRAINT-MAINPART50, adjust=YES
  *tie, name=ASSEMBLY_CONSTRAINT-MAINPART51, adjust=YES
  *tie, name=ASSEMBLY_CONSTRAINT-MAINPART52, adjust=YES
  *tie, name=ASSEMBLY_CONSTRAINT-MAINPART53, adjust=YES
  *tie, name=ASSEMBLY_CONSTRAINT-MAINPART54, adjust=YES
  *tie, name=ASSEMBLY_CONSTRAINT-MAINPART55, adjust=YES
  *tie, name=ASSEMBLY_CONSTRAINT-MAINPART56, adjust=YES
  *tie, name=ASSEMBLY_CONSTRAINT-MAINPART57, adjust=YES
  *tie, name=ASSEMBLY_CONSTRAINT-MAINPART58, adjust=YES
  *tie, name=ASSEMBLY_CONSTRAINT-MAINPART59, adjust=YES
  *tie, name=ASSEMBLY_CONSTRAINT-MAINPART60, adjust=YES
  *tie, name=ASSEMBLY_CONSTRAINT-MAINPART61, adjust=YES
  *tie, name=ASSEMBLY_CONSTRAINT-MAINPART62, adjust=YES
  *tie, name=ASSEMBLY_CONSTRAINT-MAINPART63, adjust=YES
  *tie, name=ASSEMBLY_CONSTRAINT-MAINPART64, adjust=YES
  *tie, name=ASSEMBLY_CONSTRAINT-MAINPART65, adjust=YES
  *tie, name=ASSEMBLY_CONSTRAINT-MAINPART66, adjust=YES
  *tie, name=ASSEMBLY_CONSTRAINT-MAINPART67, adjust=YES
  *tie, name=ASSEMBLY_CONSTRAINT-MAINPART68, adjust=YES
  *tie, name=ASSEMBLY_CONSTRAINT-MAINPART69, adjust=YES
  *tie, name=ASSEMBLY_CONSTRAINT-MAINPART70, adjust=YES
  *tie, name=ASSEMBLY_CONSTRAINT-MAINPART71, adjust=YES
  *tie, name=ASSEMBLY_CONSTRAINT-MAINPART72, adjust=YES
  *tie, name=ASSEMBLY_CONSTRAINT-MAINPART73, adjust=YES
  *tie, name=ASSEMBLY_CONSTRAINT-MAINPART74, adjust=YES
  *tie, name=ASSEMBLY_CONSTRAINT-MAINPART75, adjust=YES
  *tie, name=ASSEMBLY_CONSTRAINT-MAINPART76, adjust=YES
  *tie, name=ASSEMBLY_CONSTRAINT-MAINPART77, adjust=YES
  *tie, name=ASSEMBLY_CONSTRAINT-MAINPART78, adjust=YES
  *tie, name=ASSEMBLY_CONSTRAINT-MAINPART79, adjust=YES
  *tie, name=ASSEMBLY_CONSTRAINT-MAINPART80, adjust=YES
  *tie, name=ASSEMBLY_CONSTRAINT-MAINPART81, adjust=YES
  *tie, name=ASSEMBLY_CONSTRAINT-MAINPART82, adjust=YES
  *tie, name=ASSEMBLY_CONSTRAINT-MAINPART83, adjust=YES
  *tie, name=ASSEMBLY_CONSTRAINT-MAINPART84, adjust=YES
  *tie, name=ASSEMBLY_CONSTRAINT-MAINPART85, adjust=YES
  *tie, name=ASSEMBLY_CONSTRAINT-MAINPART86, adjust=YES
  *tie, name=ASSEMBLY_CONSTRAINT-MAINPART87, adjust=YES
  *tie, name=ASSEMBLY_CONSTRAINT-MAINPART88, adjust=YES
  *tie, name=ASSEMBLY_CONSTRAINT-MAINPART89, adjust=YES
  *tie, name=ASSEMBLY_CONSTRAINT-MAINPART90, adjust=YES
  *tie, name=ASSEMBLY_CONSTRAINT-MAINPART91, adjust=YES
  *tie, name=ASSEMBLY_CONSTRAINT-MAINPART92, adjust=YES
  *tie, name=ASSEMBLY_CONSTRAINT-MAINPART93, adjust=YES
  *tie, name=ASSEMBLY_CONSTRAINT-MAINPART94, adjust=YES
  *tie, name=ASSEMBLY_CONSTRAINT-MAINPART95, adjust=YES
  *tie, name=ASSEMBLY_CONSTRAINT-MAINPART96, adjust=YES
  *tie, name=ASSEMBLY_CONSTRAINT-MAINPART97, adjust=YES
  *tie, name=ASSEMBLY_CONSTRAINT-MAINPART98, adjust=YES
  *tie, name=ASSEMBLY_CONSTRAINT-MAINPART99, adjust=YES
  *tie, name=ASSEMBLY_CONSTRAINT-MAINPART100, adjust=YES
  *tie, name=ASSEMBLY_CONSTRAINT-MAINPART101, adjust=YES
  *tie, name=ASSEMBLY_CONSTRAINT-MAINPART102, adjust=YES
  *tie, name=ASSEMBLY_CONSTRAINT-MAINPART103, adjust=YES
  *tie, name=ASSEMBLY_CONSTRAINT-MAINPART104, adjust=YES
  *tie, name=ASSEMBLY_CONSTRAINT-MAINPART105, adjust=YES
  *tie, name=ASSEMBLY_CONSTRAINT-MAINPART106, adjust=YES
  *tie, name=ASSEMBLY_CONSTRAINT-MAINPART107, adjust=YES
  *tie, name=ASSEMBLY_CONSTRAINT-MAINPART108, adjust=YES
  *tie, name=ASSEMBLY_CONSTRAINT-MAINPART109, adjust=YES
  *tie, name=ASSEMBLY_CONSTRAINT-MAINPART110, adjust=YES
  *tie, name=ASSEMBLY_CONSTRAINT-MAINPART111, adjust=YES
  *tie, name=ASSEMBLY_CONSTRAINT-MAINPART112, adjust=YES
  *tie, name=ASSEMBLY_CONSTRAINT-MAINPART113, adjust=YES
  *tie, name=ASSEMBLY_CONSTRAINT-MAINPART114, adjust=YES
  *tie, name=ASSEMBLY_CONSTRAINT-MAINPART115, adjust=YES
  *tie, name=ASSEMBLY_CONSTRAINT-MAINPART116, adjust=YES
  *tie, name=ASSEMBLY_CONSTRAINT-MAINPART117, adjust=YES
  *tie, name=ASSEMBLY_CONSTRAINT-MAINPART118, adjust=YES
  *tie, name=ASSEMBLY_CONSTRAINT-MAINPART119, adjust=YES
  *tie, name=ASSEMBLY_CONSTRAINT-MAINPART120, adjust=YES
  *tie, name=ASSEMBLY_CONSTRAINT-MAINPART121, adjust=YES
  *tie, name=ASSEMBLY_CONSTRAINT-MAINPART122, adjust=YES
  *tie, name=ASSEMBLY_CONSTRAINT-MAINPART123, adjust=YES
  *tie, name=ASSEMBLY_CONSTRAINT-MAINPART124, adjust=YES
  *tie, name=ASSEMBLY_CONSTRAINT-MAINPART125, adjust=YES
  *solidsection, elset=ASSEMBLY_MAINPART_SET-1, material=MAINPART
  *solidsection, elset=ASSEMBLY_PART-0_SET-1, material=PART-0
  *solidsection, elset=ASSEMBLY_PART-1_SET-1, material=PART-1
  *solidsection, elset=ASSEMBLY_PART-2_SET-1, material=PART-2
  *solidsection, elset=ASSEMBLY_PART-3_SET-1, material=PART-3
  *solidsection, elset=ASSEMBLY_PART-4_SET-1, material=PART-4
  *solidsection, elset=ASSEMBLY_PART-5_SET-1, material=PART-5
  *solidsection, elset=ASSEMBLY_PART-6_SET-1, material=PART-6
  *solidsection, elset=ASSEMBLY_PART-7_SET-1, material=PART-7
  *solidsection, elset=ASSEMBLY_PART-8_SET-1, material=PART-8
  *solidsection, elset=ASSEMBLY_PART-9_SET-1, material=PART-9
  *solidsection, elset=ASSEMBLY_PART-10_SET-1, material=PART-10
  *solidsection, elset=ASSEMBLY_PART-11_SET-1, material=PART-11
  *solidsection, elset=ASSEMBLY_PART-12_SET-1, material=PART-12
  *solidsection, elset=ASSEMBLY_PART-13_SET-1, material=PART-13
  *solidsection, elset=ASSEMBLY_PART-14_SET-1, material=PART-14
  *solidsection, elset=ASSEMBLY_PART-15_SET-1, material=PART-15
  *solidsection, elset=ASSEMBLY_PART-16_SET-1, material=PART-16
  *solidsection, elset=ASSEMBLY_PART-17_SET-1, material=PART-17
  *solidsection, elset=ASSEMBLY_PART-18_SET-1, material=PART-18
  *solidsection, elset=ASSEMBLY_PART-19_SET-1, material=PART-19
  *solidsection, elset=ASSEMBLY_PART-20_SET-1, material=PART-20
  *solidsection, elset=ASSEMBLY_PART-21_SET-1, material=PART-21
  *solidsection, elset=ASSEMBLY_PART-22_SET-1, material=PART-22
  *solidsection, elset=ASSEMBLY_PART-23_SET-1, material=PART-23
  *solidsection, elset=ASSEMBLY_PART-24_SET-1, material=PART-24
  *solidsection, elset=ASSEMBLY_PART-25_SET-1, material=PART-25
  *solidsection, elset=ASSEMBLY_PART-26_SET-1, material=PART-26
  *solidsection, elset=ASSEMBLY_PART-27_SET-1, material=PART-27
  *solidsection, elset=ASSEMBLY_PART-28_SET-1, material=PART-28
  *solidsection, elset=ASSEMBLY_PART-29_SET-1, material=PART-29
  *solidsection, elset=ASSEMBLY_PART-30_SET-1, material=PART-30
  *solidsection, elset=ASSEMBLY_PART-31_SET-1, material=PART-31
  *solidsection, elset=ASSEMBLY_PART-32_SET-1, material=PART-32
  *solidsection, elset=ASSEMBLY_PART-33_SET-1, material=PART-33
  *solidsection, elset=ASSEMBLY_PART-34_SET-1, material=PART-34
  *solidsection, elset=ASSEMBLY_PART-35_SET-1, material=PART-35
  *solidsection, elset=ASSEMBLY_PART-36_SET-1, material=PART-36
  *solidsection, elset=ASSEMBLY_PART-37_SET-1, material=PART-37
  *solidsection, elset=ASSEMBLY_PART-38_SET-1, material=PART-38
  *solidsection, elset=ASSEMBLY_PART-39_SET-1, material=PART-39
  *solidsection, elset=ASSEMBLY_PART-40_SET-1, material=PART-40
  *solidsection, elset=ASSEMBLY_PART-41_SET-1, material=PART-41
  *solidsection, elset=ASSEMBLY_PART-42_SET-1, material=PART-42
  *solidsection, elset=ASSEMBLY_PART-43_SET-1, material=PART-43
  *solidsection, elset=ASSEMBLY_PART-44_SET-1, material=PART-44
  *solidsection, elset=ASSEMBLY_PART-45_SET-1, material=PART-45
  *solidsection, elset=ASSEMBLY_PART-46_SET-1, material=PART-46
  *solidsection, elset=ASSEMBLY_PART-47_SET-1, material=PART-47
  *solidsection, elset=ASSEMBLY_PART-48_SET-1, material=PART-48
  *solidsection, elset=ASSEMBLY_PART-49_SET-1, material=PART-49
  *solidsection, elset=ASSEMBLY_PART-50_SET-1, material=PART-50
  *solidsection, elset=ASSEMBLY_PART-51_SET-1, material=PART-51
  *solidsection, elset=ASSEMBLY_PART-52_SET-1, material=PART-52
  *solidsection, elset=ASSEMBLY_PART-53_SET-1, material=PART-53
  *solidsection, elset=ASSEMBLY_PART-54_SET-1, material=PART-54
  *solidsection, elset=ASSEMBLY_PART-55_SET-1, material=PART-55
  *solidsection, elset=ASSEMBLY_PART-56_SET-1, material=PART-56
  *solidsection, elset=ASSEMBLY_PART-57_SET-1, material=PART-57
  *solidsection, elset=ASSEMBLY_PART-58_SET-1, material=PART-58
  *solidsection, elset=ASSEMBLY_PART-59_SET-1, material=PART-59
  *solidsection, elset=ASSEMBLY_PART-60_SET-1, material=PART-60
  *solidsection, elset=ASSEMBLY_PART-61_SET-1, material=PART-61
  *solidsection, elset=ASSEMBLY_PART-62_SET-1, material=PART-62
  *solidsection, elset=ASSEMBLY_PART-63_SET-1, material=PART-63
  *solidsection, elset=ASSEMBLY_PART-64_SET-1, material=PART-64
  *solidsection, elset=ASSEMBLY_PART-65_SET-1, material=PART-65
  *solidsection, elset=ASSEMBLY_PART-66_SET-1, material=PART-66
  *solidsection, elset=ASSEMBLY_PART-67_SET-1, material=PART-67
  *solidsection, elset=ASSEMBLY_PART-68_SET-1, material=PART-68
  *solidsection, elset=ASSEMBLY_PART-69_SET-1, material=PART-69
  *solidsection, elset=ASSEMBLY_PART-70_SET-1, material=PART-70
  *solidsection, elset=ASSEMBLY_PART-71_SET-1, material=PART-71
  *solidsection, elset=ASSEMBLY_PART-72_SET-1, material=PART-72
  *solidsection, elset=ASSEMBLY_PART-73_SET-1, material=PART-73
  *solidsection, elset=ASSEMBLY_PART-74_SET-1, material=PART-74
  *solidsection, elset=ASSEMBLY_PART-75_SET-1, material=PART-75
  *solidsection, elset=ASSEMBLY_PART-76_SET-1, material=PART-76
  *solidsection, elset=ASSEMBLY_PART-77_SET-1, material=PART-77
  *solidsection, elset=ASSEMBLY_PART-78_SET-1, material=PART-78
  *solidsection, elset=ASSEMBLY_PART-79_SET-1, material=PART-79
  *solidsection, elset=ASSEMBLY_PART-80_SET-1, material=PART-80
  *solidsection, elset=ASSEMBLY_PART-81_SET-1, material=PART-81
  *solidsection, elset=ASSEMBLY_PART-82_SET-1, material=PART-82
  *solidsection, elset=ASSEMBLY_PART-83_SET-1, material=PART-83
  *solidsection, elset=ASSEMBLY_PART-84_SET-1, material=PART-84
  *solidsection, elset=ASSEMBLY_PART-85_SET-1, material=PART-85
  *solidsection, elset=ASSEMBLY_PART-86_SET-1, material=PART-86
  *solidsection, elset=ASSEMBLY_PART-87_SET-1, material=PART-87
  *solidsection, elset=ASSEMBLY_PART-88_SET-1, material=PART-88
  *solidsection, elset=ASSEMBLY_PART-89_SET-1, material=PART-89
  *solidsection, elset=ASSEMBLY_PART-90_SET-1, material=PART-90
  *solidsection, elset=ASSEMBLY_PART-91_SET-1, material=PART-91
  *solidsection, elset=ASSEMBLY_PART-92_SET-1, material=PART-92
  *solidsection, elset=ASSEMBLY_PART-93_SET-1, material=PART-93
  *solidsection, elset=ASSEMBLY_PART-94_SET-1, material=PART-94
  *solidsection, elset=ASSEMBLY_PART-95_SET-1, material=PART-95
  *solidsection, elset=ASSEMBLY_PART-96_SET-1, material=PART-96
  *solidsection, elset=ASSEMBLY_PART-97_SET-1, material=PART-97
  *solidsection, elset=ASSEMBLY_PART-98_SET-1, material=PART-98
  *solidsection, elset=ASSEMBLY_PART-99_SET-1, material=PART-99
  *solidsection, elset=ASSEMBLY_PART-100_SET-1, material=PART-100
  *solidsection, elset=ASSEMBLY_PART-101_SET-1, material=PART-101
  *solidsection, elset=ASSEMBLY_PART-102_SET-1, material=PART-102
  *solidsection, elset=ASSEMBLY_PART-103_SET-1, material=PART-103
  *solidsection, elset=ASSEMBLY_PART-104_SET-1, material=PART-104
  *solidsection, elset=ASSEMBLY_PART-105_SET-1, material=PART-105
  *solidsection, elset=ASSEMBLY_PART-106_SET-1, material=PART-106
  *solidsection, elset=ASSEMBLY_PART-107_SET-1, material=PART-107
  *solidsection, elset=ASSEMBLY_PART-108_SET-1, material=PART-108
  *solidsection, elset=ASSEMBLY_PART-109_SET-1, material=PART-109
  *solidsection, elset=ASSEMBLY_PART-110_SET-1, material=PART-110
  *solidsection, elset=ASSEMBLY_PART-111_SET-1, material=PART-111
  *solidsection, elset=ASSEMBLY_PART-112_SET-1, material=PART-112
  *solidsection, elset=ASSEMBLY_PART-113_SET-1, material=PART-113
  *solidsection, elset=ASSEMBLY_PART-114_SET-1, material=PART-114
  *solidsection, elset=ASSEMBLY_PART-115_SET-1, material=PART-115
  *solidsection, elset=ASSEMBLY_PART-116_SET-1, material=PART-116
  *solidsection, elset=ASSEMBLY_PART-117_SET-1, material=PART-117
  *solidsection, elset=ASSEMBLY_PART-118_SET-1, material=PART-118
  *solidsection, elset=ASSEMBLY_PART-119_SET-1, material=PART-119
  *solidsection, elset=ASSEMBLY_PART-120_SET-1, material=PART-120
  *solidsection, elset=ASSEMBLY_PART-121_SET-1, material=PART-121
  *solidsection, elset=ASSEMBLY_PART-122_SET-1, material=PART-122
  *solidsection, elset=ASSEMBLY_PART-123_SET-1, material=PART-123
  *solidsection, elset=ASSEMBLY_PART-124_SET-1, material=PART-124
  *solidsection, elset=ASSEMBLY_PART-125_SET-1, material=PART-125
  *material, name=MAINPART
  *elastic
  *material, name=PART-0
  *elastic
  *material, name=PART-1
  *elastic
  *material, name=PART-2
  *elastic
  *material, name=PART-3
  *elastic
  *material, name=PART-4
  *elastic
  *material, name=PART-5
  *elastic
  *material, name=PART-6
  *elastic
  *material, name=PART-7
  *elastic
  *material, name=PART-8
  *elastic
  *material, name=PART-9
  *elastic
  *material, name=PART-10
  *elastic
  *material, name=PART-11
  *elastic
  *material, name=PART-12
  *elastic
  *material, name=PART-13
  *elastic
  *material, name=PART-14
  *elastic
  *material, name=PART-15
  *elastic
  *material, name=PART-16
  *elastic
  *material, name=PART-17
  *elastic
  *material, name=PART-18
  *elastic
  *material, name=PART-19
  *elastic
  *material, name=PART-20
  *elastic
  *material, name=PART-21
  *elastic
  *material, name=PART-22
  *elastic
  *material, name=PART-23
  *elastic
  *material, name=PART-24
  *elastic
  *material, name=PART-25
  *elastic
  *material, name=PART-26
  *elastic
  *material, name=PART-27
  *elastic
  *material, name=PART-28
  *elastic
  *material, name=PART-29
  *elastic
  *material, name=PART-30
  *elastic
  *material, name=PART-31
  *elastic
  *material, name=PART-32
  *elastic
  *material, name=PART-33
  *elastic
  *material, name=PART-34
  *elastic
  *material, name=PART-35
  *elastic
  *material, name=PART-36
  *elastic
  *material, name=PART-37
  *elastic
  *material, name=PART-38
  *elastic
  *material, name=PART-39
  *elastic
  *material, name=PART-40
  *elastic
  *material, name=PART-41
  *elastic
  *material, name=PART-42
  *elastic
  *material, name=PART-43
  *elastic
  *material, name=PART-44
  *elastic
  *material, name=PART-45
  *elastic
  *material, name=PART-46
  *elastic
  *material, name=PART-47
  *elastic
  *material, name=PART-48
  *elastic
  *material, name=PART-49
  *elastic
  *material, name=PART-50
  *elastic
  *material, name=PART-51
  *elastic
  *material, name=PART-52
  *elastic
  *material, name=PART-53
  *elastic
  *material, name=PART-54
  *elastic
  *material, name=PART-55
  *elastic
  *material, name=PART-56
  *elastic
  *material, name=PART-57
  *elastic
  *material, name=PART-58
  *elastic
  *material, name=PART-59
  *elastic
  *material, name=PART-60
  *elastic
  *material, name=PART-61
  *elastic
  *material, name=PART-62
  *elastic
  *material, name=PART-63
  *elastic
  *material, name=PART-64
  *elastic
  *material, name=PART-65
  *elastic
  *material, name=PART-66
  *elastic
  *material, name=PART-67
  *elastic
  *material, name=PART-68
  *elastic
  *material, name=PART-69
  *elastic
  *material, name=PART-70
  *elastic
  *material, name=PART-71
  *elastic
  *material, name=PART-72
  *elastic
  *material, name=PART-73
  *elastic
  *material, name=PART-74
  *elastic
[...]
  *solidsection, elset=ASSEMBLY_PART-116_SET-1, material=PART-116
  *solidsection, elset=ASSEMBLY_PART-117_SET-1, material=PART-117
  *solidsection, elset=ASSEMBLY_PART-118_SET-1, material=PART-118
  *solidsection, elset=ASSEMBLY_PART-119_SET-1, material=PART-119
  *solidsection, elset=ASSEMBLY_PART-120_SET-1, material=PART-120
  *solidsection, elset=ASSEMBLY_PART-121_SET-1, material=PART-121
  *solidsection, elset=ASSEMBLY_PART-122_SET-1, material=PART-122
  *solidsection, elset=ASSEMBLY_PART-123_SET-1, material=PART-123
  *solidsection, elset=ASSEMBLY_PART-124_SET-1, material=PART-124
  *solidsection, elset=ASSEMBLY_PART-125_SET-1, material=PART-125
  *tie, name=ASSEMBLY_CONSTRAINT-MAINPART0, adjust=YES
  *tie, name=ASSEMBLY_CONSTRAINT-MAINPART1, adjust=YES
  *tie, name=ASSEMBLY_CONSTRAINT-MAINPART2, adjust=YES
  *tie, name=ASSEMBLY_CONSTRAINT-MAINPART3, adjust=YES
  *tie, name=ASSEMBLY_CONSTRAINT-MAINPART4, adjust=YES
  *tie, name=ASSEMBLY_CONSTRAINT-MAINPART5, adjust=YES
  *tie, name=ASSEMBLY_CONSTRAINT-MAINPART6, adjust=YES
  *tie, name=ASSEMBLY_CONSTRAINT-MAINPART7, adjust=YES
  *tie, name=ASSEMBLY_CONSTRAINT-MAINPART8, adjust=YES
  *tie, name=ASSEMBLY_CONSTRAINT-MAINPART9, adjust=YES
  *tie, name=ASSEMBLY_CONSTRAINT-MAINPART10, adjust=YES
  *tie, name=ASSEMBLY_CONSTRAINT-MAINPART11, adjust=YES
  *tie, name=ASSEMBLY_CONSTRAINT-MAINPART12, adjust=YES
  *tie, name=ASSEMBLY_CONSTRAINT-MAINPART13, adjust=YES
  *tie, name=ASSEMBLY_CONSTRAINT-MAINPART14, adjust=YES
  *tie, name=ASSEMBLY_CONSTRAINT-MAINPART15, adjust=YES
  *tie, name=ASSEMBLY_CONSTRAINT-MAINPART16, adjust=YES
  *tie, name=ASSEMBLY_CONSTRAINT-MAINPART17, adjust=YES
  *tie, name=ASSEMBLY_CONSTRAINT-MAINPART18, adjust=YES
  *tie, name=ASSEMBLY_CONSTRAINT-MAINPART19, adjust=YES
  *tie, name=ASSEMBLY_CONSTRAINT-MAINPART20, adjust=YES
  *tie, name=ASSEMBLY_CONSTRAINT-MAINPART21, adjust=YES
  *tie, name=ASSEMBLY_CONSTRAINT-MAINPART22, adjust=YES
  *tie, name=ASSEMBLY_CONSTRAINT-MAINPART23, adjust=YES
  *tie, name=ASSEMBLY_CONSTRAINT-MAINPART24, adjust=YES
  *tie, name=ASSEMBLY_CONSTRAINT-MAINPART25, adjust=YES
  *tie, name=ASSEMBLY_CONSTRAINT-MAINPART26, adjust=YES
  *tie, name=ASSEMBLY_CONSTRAINT-MAINPART27, adjust=YES
  *tie, name=ASSEMBLY_CONSTRAINT-MAINPART28, adjust=YES
  *tie, name=ASSEMBLY_CONSTRAINT-MAINPART29, adjust=YES
  *tie, name=ASSEMBLY_CONSTRAINT-MAINPART30, adjust=YES
  *tie, name=ASSEMBLY_CONSTRAINT-MAINPART31, adjust=YES
  *tie, name=ASSEMBLY_CONSTRAINT-MAINPART32, adjust=YES
  *tie, name=ASSEMBLY_CONSTRAINT-MAINPART33, adjust=YES
  *tie, name=ASSEMBLY_CONSTRAINT-MAINPART34, adjust=YES
  *tie, name=ASSEMBLY_CONSTRAINT-MAINPART35, adjust=YES
  *tie, name=ASSEMBLY_CONSTRAINT-MAINPART36, adjust=YES
  *tie, name=ASSEMBLY_CONSTRAINT-MAINPART37, adjust=YES
  *tie, name=ASSEMBLY_CONSTRAINT-MAINPART38, adjust=YES
  *tie, name=ASSEMBLY_CONSTRAINT-MAINPART39, adjust=YES
  *tie, name=ASSEMBLY_CONSTRAINT-MAINPART40, adjust=YES
  *tie, name=ASSEMBLY_CONSTRAINT-MAINPART41, adjust=YES
  *tie, name=ASSEMBLY_CONSTRAINT-MAINPART42, adjust=YES
  *tie, name=ASSEMBLY_CONSTRAINT-MAINPART43, adjust=YES
  *tie, name=ASSEMBLY_CONSTRAINT-MAINPART44, adjust=YES
  *tie, name=ASSEMBLY_CONSTRAINT-MAINPART45, adjust=YES
  *tie, name=ASSEMBLY_CONSTRAINT-MAINPART46, adjust=YES
  *tie, name=ASSEMBLY_CONSTRAINT-MAINPART47, adjust=YES
  *tie, name=ASSEMBLY_CONSTRAINT-MAINPART48, adjust=YES
  *tie, name=ASSEMBLY_CONSTRAINT-MAINPART49, adjust=YES
  *tie, name=ASSEMBLY_CONSTRAINT-MAINPART50, adjust=YES
  *tie, name=ASSEMBLY_CONSTRAINT-MAINPART51, adjust=YES
  *tie, name=ASSEMBLY_CONSTRAINT-MAINPART52, adjust=YES
  *tie, name=ASSEMBLY_CONSTRAINT-MAINPART53, adjust=YES
  *tie, name=ASSEMBLY_CONSTRAINT-MAINPART54, adjust=YES
  *tie, name=ASSEMBLY_CONSTRAINT-MAINPART55, adjust=YES
  *tie, name=ASSEMBLY_CONSTRAINT-MAINPART56, adjust=YES
  *tie, name=ASSEMBLY_CONSTRAINT-MAINPART57, adjust=YES
  *tie, name=ASSEMBLY_CONSTRAINT-MAINPART58, adjust=YES
  *tie, name=ASSEMBLY_CONSTRAINT-MAINPART59, adjust=YES
  *tie, name=ASSEMBLY_CONSTRAINT-MAINPART60, adjust=YES
  *tie, name=ASSEMBLY_CONSTRAINT-MAINPART61, adjust=YES
  *tie, name=ASSEMBLY_CONSTRAINT-MAINPART62, adjust=YES
  *tie, name=ASSEMBLY_CONSTRAINT-MAINPART63, adjust=YES
  *tie, name=ASSEMBLY_CONSTRAINT-MAINPART64, adjust=YES
  *tie, name=ASSEMBLY_CONSTRAINT-MAINPART65, adjust=YES
  *tie, name=ASSEMBLY_CONSTRAINT-MAINPART66, adjust=YES
  *tie, name=ASSEMBLY_CONSTRAINT-MAINPART67, adjust=YES
  *tie, name=ASSEMBLY_CONSTRAINT-MAINPART68, adjust=YES
  *tie, name=ASSEMBLY_CONSTRAINT-MAINPART69, adjust=YES
  *tie, name=ASSEMBLY_CONSTRAINT-MAINPART70, adjust=YES
  *tie, name=ASSEMBLY_CONSTRAINT-MAINPART71, adjust=YES
  *tie, name=ASSEMBLY_CONSTRAINT-MAINPART72, adjust=YES
  *tie, name=ASSEMBLY_CONSTRAINT-MAINPART73, adjust=YES
  *tie, name=ASSEMBLY_CONSTRAINT-MAINPART74, adjust=YES
  *tie, name=ASSEMBLY_CONSTRAINT-MAINPART75, adjust=YES
  *tie, name=ASSEMBLY_CONSTRAINT-MAINPART76, adjust=YES
  *tie, name=ASSEMBLY_CONSTRAINT-MAINPART77, adjust=YES
  *tie, name=ASSEMBLY_CONSTRAINT-MAINPART78, adjust=YES
  *tie, name=ASSEMBLY_CONSTRAINT-MAINPART79, adjust=YES
  *tie, name=ASSEMBLY_CONSTRAINT-MAINPART80, adjust=YES
  *tie, name=ASSEMBLY_CONSTRAINT-MAINPART81, adjust=YES
  *tie, name=ASSEMBLY_CONSTRAINT-MAINPART82, adjust=YES
  *tie, name=ASSEMBLY_CONSTRAINT-MAINPART83, adjust=YES
  *tie, name=ASSEMBLY_CONSTRAINT-MAINPART84, adjust=YES
  *tie, name=ASSEMBLY_CONSTRAINT-MAINPART85, adjust=YES
  *tie, name=ASSEMBLY_CONSTRAINT-MAINPART86, adjust=YES
  *tie, name=ASSEMBLY_CONSTRAINT-MAINPART87, adjust=YES
  *tie, name=ASSEMBLY_CONSTRAINT-MAINPART88, adjust=YES
  *tie, name=ASSEMBLY_CONSTRAINT-MAINPART89, adjust=YES
  *tie, name=ASSEMBLY_CONSTRAINT-MAINPART90, adjust=YES
  *tie, name=ASSEMBLY_CONSTRAINT-MAINPART91, adjust=YES
  *tie, name=ASSEMBLY_CONSTRAINT-MAINPART92, adjust=YES
  *tie, name=ASSEMBLY_CONSTRAINT-MAINPART93, adjust=YES
  *tie, name=ASSEMBLY_CONSTRAINT-MAINPART94, adjust=YES
  *tie, name=ASSEMBLY_CONSTRAINT-MAINPART95, adjust=YES
  *tie, name=ASSEMBLY_CONSTRAINT-MAINPART96, adjust=YES
  *tie, name=ASSEMBLY_CONSTRAINT-MAINPART97, adjust=YES
  *tie, name=ASSEMBLY_CONSTRAINT-MAINPART98, adjust=YES
  *tie, name=ASSEMBLY_CONSTRAINT-MAINPART99, adjust=YES
  *tie, name=ASSEMBLY_CONSTRAINT-MAINPART100, adjust=YES
  *tie, name=ASSEMBLY_CONSTRAINT-MAINPART101, adjust=YES
  *tie, name=ASSEMBLY_CONSTRAINT-MAINPART102, adjust=YES
  *tie, name=ASSEMBLY_CONSTRAINT-MAINPART103, adjust=YES
  *tie, name=ASSEMBLY_CONSTRAINT-MAINPART104, adjust=YES
  *tie, name=ASSEMBLY_CONSTRAINT-MAINPART105, adjust=YES
  *tie, name=ASSEMBLY_CONSTRAINT-MAINPART106, adjust=YES
  *tie, name=ASSEMBLY_CONSTRAINT-MAINPART107, adjust=YES
  *tie, name=ASSEMBLY_CONSTRAINT-MAINPART108, adjust=YES
  *tie, name=ASSEMBLY_CONSTRAINT-MAINPART109, adjust=YES
  *tie, name=ASSEMBLY_CONSTRAINT-MAINPART110, adjust=YES
  *tie, name=ASSEMBLY_CONSTRAINT-MAINPART111, adjust=YES
  *tie, name=ASSEMBLY_CONSTRAINT-MAINPART112, adjust=YES
  *tie, name=ASSEMBLY_CONSTRAINT-MAINPART113, adjust=YES
  *tie, name=ASSEMBLY_CONSTRAINT-MAINPART114, adjust=YES
  *tie, name=ASSEMBLY_CONSTRAINT-MAINPART115, adjust=YES
  *tie, name=ASSEMBLY_CONSTRAINT-MAINPART116, adjust=YES
  *tie, name=ASSEMBLY_CONSTRAINT-MAINPART117, adjust=YES
  *tie, name=ASSEMBLY_CONSTRAINT-MAINPART118, adjust=YES
  *tie, name=ASSEMBLY_CONSTRAINT-MAINPART119, adjust=YES
  *tie, name=ASSEMBLY_CONSTRAINT-MAINPART120, adjust=YES
  *tie, name=ASSEMBLY_CONSTRAINT-MAINPART121, adjust=YES
  *tie, name=ASSEMBLY_CONSTRAINT-MAINPART122, adjust=YES
  *tie, name=ASSEMBLY_CONSTRAINT-MAINPART123, adjust=YES
  *tie, name=ASSEMBLY_CONSTRAINT-MAINPART124, adjust=YES
  *tie, name=ASSEMBLY_CONSTRAINT-MAINPART125, adjust=YES
  *output, field, variable=PRESELECT
  *output, history, variable=PRESELECT
  *output, field, variable=PRESELECT
  *output, history, variable=PRESELECT
  *output, field, variable=PRESELECT
  *output, history, variable=PRESELECT
  *Step, name=Step-1, nlgeom=NO
  *output, field, variable=PRESELECT
  *output, history, variable=PRESELECT
  *Step, name=Step-1, nlgeom=NO
  *Step, name=Step-1, nlgeom=NO
  *static
  *dsload
  *output, field, variable=PRESELECT
  *output, history, variable=PRESELECT
  *endstep
  *boundary
  *Step, name=Step-1, nlgeom=NO
  *static
  *endstep
  
                               E L E M E N T   Q U A L I T Y  C H E C K S        
  
  
 ***NOTES: DISTORTED ISOPARAMETRIC ELEMENTS: ANGLE BETWEEN ISOPARAMETRIC LINES 
           IS LESS THAN 45 DEGREES OR GREATER THAN 135 DEGREES.
  
           TETRAHEDRAL QUALITY MEASURE: VOLUME OF TETRAHEDRON DIVIDED BY THE 
           VOLUME OF EQUILATERAL TETRAHEDRON WITH SAME CIRCUMSPHERE RADIUS; 
           0 FOR DEGENERATE TETRAHEDRON AND 1 FOR EQUILATERIAL TETRAHEDRON. IT 
           IS RECOMMENDED THAT THE TETRAHEDRAL QUALITY MEASURE BE GREATER THAN 
           0.02, THE MIN INTERIOR (DIHEDRAL) ANGLE BE GREATER THAN 10 DEGREES, 
           AND THE MAX INTERIOR (DIHEDRAL) ANGLE BE LESS THAN 160 DEGREES. 
  
           TRIANGULAR QUALITY MEASURE: AREA OF TRIANGLE DIVIDED BY THE AREA OF 
           EQUILATERAL TRIANGLE WITH SAME CIRCUMCIRCLE RADIUS; 0 FOR DEGENERATE 
           TRIANGLE AND 1 FOR EQUILATERAL TRIANGLE. IT IS RECOMMENDED THAT THE
           TRIANGULAR QUALITY MEASURE BE GREATER THAN 0.01, THE MIN INTERIOR 
           ANGLE BE GREATER THAN 10 DEGREES, AND THE MAX INTERIOR ANGLE BE LESS 
           THAN 160 DEGREES. 
  
           NODAL ADJUSTMENTS ARISING FROM CONTACT INTERACTIONS AND/OR TIE 
           CONSTRAINTS CAN CAUSE SEVERE ELEMENT DISTORTION. IT MAY BE NECESSARY 
           TO REMESH IN ORDER TO REDUCE THE AMOUNT OF ADJUSTMENT. 

 ***WARNING: 52 elements are distorted. Either the isoparametric angles are out 
             of the suggested limits or the triangular or tetrahedral quality 
             measure is bad. The elements have been identified in element set 
             WarnElemDistorted.
  
 --------------------------------------------------------------------------------
 Distorted triangular elements
  
      Element       Quality measure     Min angle        Max angle     Adjusted nodes 
 ------------------ ---------------- ---------------- ---------------- -------------- 
         MAINPART.3        0.0271527            4.447          149.189       NO       
         MAINPART.6         0.133068          6.79753          117.666       NO       
         MAINPART.7         0.173805          7.48671          107.334       NO       
        MAINPART.34        0.0529251          8.77449          146.873       NO       
        MAINPART.37        0.0435464          6.11692          145.746       NO       
        MAINPART.65         0.227347          8.79234          95.2475       NO       
       MAINPART.125       0.00691877           3.1003          161.621       NO       
       MAINPART.140         0.221079          9.42559          105.237       NO       
       MAINPART.141         0.230684          9.87534          105.238       NO       
       MAINPART.148         0.170307          9.67102          120.495       NO       
       MAINPART.152         0.092145          9.05138          137.025       NO       
       MAINPART.207        0.0570175           9.4348          146.442       NO       
       MAINPART.294         0.207357          7.82288          90.4733       NO       
       MAINPART.295         0.173616          6.54666          91.7495       NO       
       MAINPART.495         0.038265          1.42705          91.7584       NO       
       MAINPART.496        0.0501411          1.87095          91.7584       NO       
       MAINPART.516        0.0706257          9.94767          143.522       NO       
       MAINPART.550        0.0860967          7.97052          136.309       NO       
       MAINPART.580        0.0122275          2.25534           152.15       NO       
       MAINPART.581        0.0168054          3.02387          151.381       NO       
       MAINPART.585        0.0326154          3.00151          138.961       NO       
       MAINPART.586        0.0276732          2.56874          139.393       NO       
       MAINPART.667         0.123408          9.94149          131.646       NO       
       MAINPART.800       0.00694177          1.20082          151.757       NO       
       MAINPART.809         0.208663          8.78624          104.687       NO       
       MAINPART.915         0.179051          8.72926          114.151       NO       
       MAINPART.954         0.232887          8.75927          87.3002       NO       
       MAINPART.986         0.237627          8.95616          88.3776       NO       
      MAINPART.1115         0.023896          4.98191          152.359       NO       
      MAINPART.1141         0.180739          7.64459          105.828       NO       
      MAINPART.1218       0.00886784          1.51842          151.439       NO       
      MAINPART.1256        0.0113808          2.00754          151.629       NO       
      MAINPART.1257         0.150994          6.77396          110.583       NO       
      MAINPART.1258       0.00310624          1.85257          164.576       NO       
      MAINPART.1259       0.00570081          4.02989          164.557       NO       
      MAINPART.1261     2.91968E-005         0.722676          177.387       NO       
      MAINPART.1263         0.130109          9.25891           128.55       NO       
      MAINPART.1265      0.000162747         0.705707           174.32       NO       
      MAINPART.1269        0.0296265          6.59953          152.293       NO       
      MAINPART.1277       0.00134764          2.62416          170.631       NO       
      MAINPART.1279        0.0632123          7.43765          141.746       NO       
      MAINPART.1280      0.000291437          1.62296          174.429       NO       
      MAINPART.1282        0.0611383          8.38402          144.007       NO       
      MAINPART.1288         0.124273          8.95965          129.122       NO       
      MAINPART.1289       0.00734315          4.65025          163.439       NO       
      MAINPART.1291     2.95422E-006         0.159057          178.412       NO       
      MAINPART.1292        0.0671645          9.99011           144.41       NO       
      MAINPART.1296      0.000782102          2.87904          172.611       NO       
      MAINPART.1317        0.0421719          6.98973          147.928       NO       
      MAINPART.1665         0.091562          8.88858          136.857       NO       
      MAINPART.1666        0.0253244           5.3846          152.391       NO       
      MAINPART.1667         0.068821          6.65532          138.082       NO       
  

     - (RAMP) OR (STEP) - INDICATE USE OF DEFAULT AMPLITUDES ASSOCIATED WITH THE STEP



                            P R O B L E M   S I Z E


          NUMBER OF ELEMENTS IS                                  3179
          NUMBER OF NODES IS                                     2621
          NUMBER OF NODES DEFINED BY THE USER                    2621
          TOTAL NUMBER OF VARIABLES IN THE MODEL                 5242
          (DEGREES OF FREEDOM PLUS MAX NO. OF ANY LAGRANGE MULTIPLIER
           VARIABLES. INCLUDE *PRINT,SOLVE=YES TO GET THE ACTUAL NUMBER.)



                              END OF USER INPUT PROCESSING



     JOB TIME SUMMARY
       USER TIME (SEC)      =   1.7000    
       SYSTEM TIME (SEC)    =  0.60000    
       TOTAL CPU TIME (SEC) =   2.3000    
       WALLCLOCK TIME (SEC) =         16
1

   Abaqus 6.13-1                                  Date 09-7ÔÂ-2019   Time 21:30:31
   For use by  under license from Dassault Systemes or its subsidiary.

                                                                                               STEP    1  INCREMENT    1
                                                                                          TIME COMPLETED IN THIS STEP   0.00    


                        S T E P       1     S T A T I C   A N A L Y S I S


                                                                                          

     AUTOMATIC TIME CONTROL WITH -
          A SUGGESTED INITIAL TIME INCREMENT OF                 1.00    
          AND A TOTAL TIME PERIOD OF                            1.00    
          THE MINIMUM TIME INCREMENT ALLOWED IS                1.000E-05
          THE MAXIMUM TIME INCREMENT ALLOWED IS                 1.00    

     LINEAR EQUATION SOLVER TYPE         DIRECT SPARSE
  
                   M E M O R Y   E S T I M A T E
  
 PROCESS      FLOATING PT       MINIMUM MEMORY        MEMORY TO
              OPERATIONS           REQUIRED          MINIMIZE I/O
             PER ITERATION         (MBYTES)           (MBYTES)
  
     1         5.34E+006               18                 27
  
 NOTE:
      (1) SINCE ABAQUS DOES NOT PRE-ALLOCATE MEMORY AND ONLY ALLOCATES MEMORY AS NEEDED DURING THE ANALYSIS,
          THE MEMORY REQUIREMENT PRINTED HERE CAN ONLY BE VIEWED AS A GENERAL GUIDELINE BASED ON THE BEST
          KNOWLEDGE AVAILABLE AT THE BEGINNING OF A STEP BEFORE THE SOLUTION PROCESS HAS BEGUN.
      (2) THE ESTIMATE IS NORMALLY UPDATED AT THE BEGINNING OF EVERY STEP. IT IS THE MAXIMUM VALUE OF THE
          ESTIMATE FROM THE CURRENT STEP TO THE LAST STEP OF THE ANALYSIS, WITH UNSYMMETRIC SOLUTION TAKEN
          INTO ACCOUNT IF APPLICABLE. 
      (3) SINCE THE ESTIMATE IS BASED ON THE ACTIVE DEGREES OF FREEDOM IN THE FIRST ITERATION OF THE 
          CURRENT STEP, THE MEMORY ESTIMATE MIGHT BE SIGNIFICANTLY DIFFERENT THAN ACTUAL USAGE FOR 
          PROBLEMS WITH SUBSTANTIAL CHANGES IN ACTIVE DEGREES OF FREEDOM BETWEEN STEPS (OR EVEN WITHIN
          THE SAME STEP). EXAMPLES ARE: PROBLEMS WITH SIGNIFICANT CONTACT CHANGES, PROBLEMS WITH MODEL
          CHANGE, PROBLEMS WITH BOTH STATIC STEP AND STEADY STATE DYNAMIC PROCEDURES WHERE ACOUSTIC 
          ELEMENTS WILL ONLY BE ACTIVATED IN THE STEADY STATE DYNAMIC STEPS.
      (4) FOR MULTI-PROCESS EXECUTION, THE ESTIMATED VALUE OF FLOATING POINT OPERATIONS FOR EACH PROCESS
          IS BASED ON AN INITIAL SCHEDULING OF OPERATIONS AND MIGHT NOT REFLECT THE ACTUAL FLOATING 
          POINT OPERATIONS COMPLETED ON EACH PROCESS. OPERATIONS ARE DYNAMICALLY BALANCED DURING EXECUTION, 
          SO THE ACTUAL BALANCE OF OPERATIONS BETWEEN PROCESSES IS EXPECTED TO BE BETTER THAN THE ESTIMATE
          PRINTED HERE.
      (5) THE UPPER LIMIT OF MEMORY THAT CAN BE ALLOCATED BY ABAQUS WILL IN GENERAL DEPEND ON THE VALUE OF
          THE "MEMORY" PARAMETER AND THE AMOUNT OF PHYSICAL MEMORY AVAILABLE ON THE MACHINE. PLEASE SEE
          THE "ABAQUS ANALYSIS USER'S MANUAL" FOR MORE DETAILS. THE ACTUAL USAGE OF MEMORY AND OF DISK
          SPACE FOR SCRATCH DATA WILL DEPEND ON THIS UPPER LIMIT AS WELL AS THE MEMORY REQUIRED TO MINIMIZE
          I/O. IF THE MEMORY UPPER LIMIT IS GREATER THAN THE MEMORY REQUIRED TO MINIMIZE I/O, THEN THE ACTUAL
          MEMORY USAGE WILL BE CLOSE TO THE ESTIMATED "MEMORY TO MINIMIZE I/O" VALUE, AND THE SCRATCH DISK
          USAGE WILL BE CLOSE-TO-ZERO; OTHERWISE, THE ACTUAL MEMORY USED WILL BE CLOSE TO THE PREVIOUSLY
          MENTIONED MEMORY LIMIT, AND THE SCRATCH DISK USAGE WILL BE ROUGHLY PROPORTIONAL TO THE DIFFERENCE
          BETWEEN THE ESTIMATED "MEMORY TO MINIMIZE I/O" AND THE MEMORY UPPER LIMIT. HOWEVER ACCURATE
          ESTIMATE OF THE SCRATCH DISK SPACE IS NOT POSSIBLE.
      (6) USING "*RESTART, WRITE" CAN GENERATE A LARGE AMOUNT OF DATA WRITTEN IN THE WORK DIRECTORY.


          THE ANALYSIS HAS BEEN COMPLETED



                              ANALYSIS COMPLETE
                              WITH    127 WARNING MESSAGES ON THE DAT FILE



     JOB TIME SUMMARY
       USER TIME (SEC)      =   1.2000    
       SYSTEM TIME (SEC)    =  0.20000    
       TOTAL CPU TIME (SEC) =   1.4000    
       WALLCLOCK TIME (SEC) =          6
